@<TRIPOS>MOLECULE
*****
 61 68 0 0 0
SMALL
GASTEIGER

@<TRIPOS>ATOM
   1 S   -2.8757   -1.6107   2.4093   S
   2 S   -3.5494   0.3976   1.6263   S
   3 S   -0.1026   1.9994   2.3178   S
   4 S   -2.7684   0.3963   0.5058   S
   5 S   0.6960   0.8205   2.1575   S
   6 S   -1.9722   -0.7362   0.3090   S
   7 S   -3.8355   2.1889   0.4122   S
   8 O   -2.8722   -2.6538   3.3430   O
   9 N   -5.3453   9.2062   1.5354   N
  10 N   1.4207   -2.5441   -0.1276   N
  11 N   -4.2655   0.4911   6.0661   N
  12 N   -4.4987   4.5358   7.5321   N
  13 N   0.2308   -2.4410   2.0073   N
  14 S   -2.0837   -1.6820   1.2680   S
  15 S   0.6350   -0.1667   3.0770   S
  16 O   -1.1145   -0.9126   -0.7833   O
  17 O   -4.2968   3.4236   -0.0599   O
  18 N   -3.3551   0.4233   4.9745   N
  19 O   1.5597   0.6279   1.0727   O
  20 S   -3.6710   -0.5061   2.6258   S
  21 N   -0.8231   2.7892   -0.8986   N
  22 S   -2.9326   1.5120   -0.2669   S
  23 O   -1.3138   -2.8330   1.0618   O
  24 S   -4.2608   1.5878   1.5800   S
  25 O   1.3459   -1.3718   3.0289   O
  26 N   -6.3304   3.7318   3.1481   N
  27 O   -4.5066   -0.3231   3.7340   O
  28 O   -2.3197   1.8763   -1.4718   O
  29 O   -5.1957   2.0724   2.5025   O
  30 O   -4.2258   10.1301   1.9139   O
  31 N   -6.5313   9.7337   0.7836   N
  32 O   1.4502   -3.6206   0.7832   O
  33 O   2.3488   -2.7547   -1.2871   O
  34 O   -3.8735   -0.5348   5.3470   O
  35 O   -5.4448   0.0231   7.3394   O
  36 O   -5.4509   3.4498   7.1271   O
  37 O   -4.5436   5.0918   8.9245   O
  38 N   0.8279   -3.3889   1.9041   N
  39 C   -6.0780   10.3090   -0.5255   C
  40 O   0.7260   -4.4573   2.9521   O
  41 C   -4.8549   9.5789   -0.9956   C
  42 O   -4.8549   1.7233   6.0987   O
  43 O   -4.0134   -0.5989   6.9045   O
  44 N   -0.3233   3.0704   -1.8664   N
  45 O   -0.6690   4.3651   -2.5405   O
  46 O   0.6889   2.1508   -2.4827   O
  47 N   -7.4394   3.5599   3.2270   N
  48 O   -8.0853   2.5298   4.1054   O
  49 O   -8.0198   4.8746   3.6566   O
  50 O   -7.7235   2.9812   1.8725   O
  51 C   -4.9942   8.3640   -1.8643   C
  52 C   -3.7711   7.6339   -2.3344   C
  53 C   -2.4087   8.1188   -1.9360   C
  54 C   -2.2694   9.3337   -1.0673   C
  55 C   -3.4925   10.0638   -0.5972   C
  56 C   -1.1856   7.3887   -2.4061   C
  57 N   -0.8236   6.3267   -1.4106   N
  58 C   0.3994   5.5966   -1.8807   C
  59 C   1.1763   5.1070   -0.6947   C
  60 N   0.7044   3.7332   -0.3205   N
  61 N   1.5113   2.7084   -1.0613   N

@<TRIPOS>BOND
   1   1  14   1
   2   1  20   1
   3   1   8   1
   4   2   4   1
   5   2  20   1
   6   2  24   1
   7   3   5   1
   8   4   6   1
   9   4  22   1
  10   5  15   1
  11   5  19   1
  12   6  14   1
  13   6  16   1
  14   7  22   1
  15   7  24   1
  16   7  17   1
  17   9  30   1
  18   9  31   1
  19  10  32   1
  20  10  33   1
  21  11  34   1
  22  11  35   1
  23  11  18   1
  24  11  42   1
  25  11  43   1
  26  12  36   1
  27  12  37   1
  28  13  38   1
  29  14  23   1
  30  15  25   1
  31  16  32   1
  32  19  33   1
  33  19  32   1
  34  20  27   1
  35  21  44   1
  36  22  28   1
  37  23  32   1
  38  24  29   1
  39  25  40   1
  40  26  47   1
  41  27  34   1
  42  27  42   1
  43  28  45   1
  44  29  50   1
  45  31  39   1
  46  32  38   1
  47  34  43   1
  48  35  36   1
  49  38  40   1
  50  39  41   1
  51  41  51   1
  52  41  55   1
  53  44  45   1
  54  44  46   1
  55  46  61   1
  56  47  48   1
  57  47  49   1
  58  47  50   1
  59  51  52   1
  60  52  53   1
  61  53  54   1
  62  53  56   1
  63  54  55   1
  64  56  57   1
  65  57  58   1
  66  58  59   1
  67  59  60   1
  68  60  61   1
