@<TRIPOS>MOLECULE
*****
 43 123 0 0 0
SMALL
GASTEIGER

@<TRIPOS>ATOM
   1 C   0.9402   -6.5586   3.3877   C
   2 C   -0.7363   0.5525   2.1583   C
   3 C   3.9320   -2.9482   2.2722   C
   4 C   -1.3674   -6.3002   2.9701   C
   5 C   -1.4168   1.6264   -2.8562   C
   6 C   -2.2131   1.9886   -0.0193   C
   7 C   -1.5552   2.1705   0.6210   C
   8 C   1.1018   3.0164   1.6040   C
   9 C   2.4395   0.2788   2.5493   C
  10 C   1.1431   -2.2182   -1.8953   C
  11 C   3.3426   1.1859   -2.5995   C
  12 C   2.7413   2.5020   -0.0004   C
  13 C   4.3440   -0.8456   0.3935   C
  14 C   -1.8621   0.6479   -2.8833   C
  15 C   2.9660   4.2142   -0.7853   C
  16 C   0.0908   5.0929   -3.7117   C
  17 C   -1.0995   5.4958   0.8285   C
  18 C   1.2407   0.7126   -4.3779   C
  19 C   1.1175   3.5282   -3.6446   C
  20 C   -2.5296   2.7367   -0.9444   C
  21 C   -1.1308   -3.0410   3.6011   C
  22 C   -0.7192   -4.4190   0.3009   C
  23 C   0.1307   -2.5270   3.5443   C
  24 C   0.5453   -3.9130   0.2477   C
  25 C   1.1229   -3.3054   3.9957   C
  26 C   1.5611   -4.6866   0.7003   C
  27 C   0.4006   -1.3423   3.0795   C
  28 C   -0.7091   -0.6718   2.6684   C
  29 C   -1.6092   -2.4552   -0.6261   C
  30 C   -2.0088   -1.0928   2.6821   C
  31 C   -2.3294   -2.3855   3.1784   C
  32 C   -1.9146   -3.7565   -0.1244   C
  33 C   -3.2083   -5.3225   2.3257   C
  34 C   -4.7066   -2.8693   1.1187   C
  35 C   -2.9677   -4.3448   -0.0123   C
  36 C   -3.3823   -2.9732   3.2903   C
  37 C   -4.4152   -0.8254   0.3205   C
  38 C   -2.8312   -0.0947   2.1744   C
  39 C   -2.4228   -1.4433   -1.1384   C
  40 C   -2.0418   0.8995   1.8669   C
  41 C   -1.6422   -0.4735   -1.4369   C
  42 C   4.1459   1.7525   -2.1850   C
  43 C   -3.9842   4.3194   -2.3442   C

@<TRIPOS>BOND
   1   1   3   1
   2   1   4   1
   3   1  25   1
   4   1  26   1
   5   2   8   1
   6   2   9   1
   7   2  27   1
   8   2  28   1
   9   2  30   1
  10   2  40   1
  11   3   9   1
  12   3  13   1
  13   3  25   1
  14   3  26   1
  15   4  21   1
  16   4  22   1
  17   4  25   1
  18   4  26   1
  19   4  33   1
  20   4  35   1
  21   4  36   1
  22   5  14   1
  23   5  16   1
  24   5  18   1
  25   5  19   1
  26   5  43   1
  27   6   7   1
  28   6  17   1
  29   6  20   1
  30   6  37   1
  31   6  38   1
  32   6  40   1
  33   7   8   1
  34   7  17   1
  35   7  40   1
  36   8   9   1
  37   8  12   1
  38   8  15   1
  39   8  17   1
  40   8  40   1
  41   9  12   1
  42   9  13   1
  43   9  25   1
  44   9  27   1
  45  10  11   1
  46  10  13   1
  47  10  14   1
  48  10  18   1
  49  10  22   1
  50  10  24   1
  51  10  26   1
  52  10  29   1
  53  10  32   1
  54  10  39   1
  55  10  41   1
  56  11  13   1
  57  11  18   1
  58  11  19   1
  59  11  42   1
  60  12  13   1
  61  12  15   1
  62  12  42   1
  63  13  26   1
  64  13  42   1
  65  14  18   1
  66  14  20   1
  67  14  37   1
  68  14  39   1
  69  14  41   1
  70  14  43   1
  71  15  16   1
  72  15  17   1
  73  15  19   1
  74  15  42   1
  75  16  17   1
  76  16  19   1
  77  16  43   1
  78  17  20   1
  79  17  43   1
  80  18  19   1
  81  19  42   1
  82  20  37   1
  83  20  43   1
  84  21  23   1
  85  21  25   1
  86  21  28   1
  87  21  30   1
  88  21  31   1
  89  21  36   1
  90  22  24   1
  91  22  26   1
  92  22  32   1
  93  22  35   1
  94  23  25   1
  95  23  27   1
  96  23  28   1
  97  24  26   1
  98  25  27   1
  99  27  28   1
 100  28  30   1
 101  29  32   1
 102  29  35   1
 103  29  39   1
 104  30  31   1
 105  30  36   1
 106  30  38   1
 107  30  40   1
 108  31  36   1
 109  32  35   1
 110  33  34   1
 111  33  35   1
 112  33  36   1
 113  34  35   1
 114  34  36   1
 115  34  37   1
 116  34  38   1
 117  34  39   1
 118  35  39   1
 119  36  38   1
 120  37  38   1
 121  37  39   1
 122  38  40   1
 123  39  41   1
