@<TRIPOS>MOLECULE
*****
 51 108 0 0 0
SMALL
GASTEIGER

@<TRIPOS>ATOM
   1 C   0.9402   -6.5586   3.3877   C
   2 O   0.4067   1.3369   1.9628   O
   3 S   -0.7363   0.5525   2.1583   S
   4 C   3.9320   -2.9482   2.2722   C
   5 C   -1.3674   -6.3002   2.9701   C
   6 C   -1.4168   1.6264   -2.8562   C
   7 C   -2.2131   1.9886   -0.0193   C
   8 C   -1.5552   2.1705   0.6210   C
   9 C   1.1018   3.0164   1.6040   C
  10 C   2.4395   0.2788   2.5493   C
  11 C   1.1431   -2.2182   -1.8953   C
  12 C   3.3426   1.1859   -2.5995   C
  13 C   2.7413   2.5020   -0.0004   C
  14 C   4.3440   -0.8456   0.3935   C
  15 C   -1.8621   0.6479   -2.8833   C
  16 C   2.9660   4.2142   -0.7853   C
  17 C   0.0908   5.0929   -3.7117   C
  18 C   -1.0995   5.4958   0.8285   C
  19 C   1.2407   0.7126   -4.3779   C
  20 C   1.1175   3.5282   -3.6446   C
  21 C   -2.5296   2.7367   -0.9444   C
  22 S   -1.1308   -3.0410   3.6011   S
  23 S   -0.7192   -4.4190   0.3009   S
  24 S   0.1307   -2.5270   3.5443   S
  25 C   0.5453   -3.9130   0.2477   C
  26 O   1.7116   -0.8538   3.0285   O
  27 C   1.5611   -4.6866   0.7003   C
  28 O   -1.2004   -4.3347   4.1317   O
  29 O   -0.7957   -5.7127   0.8305   O
  30 S   0.4006   -1.3423   3.0795   S
  31 O   1.2284   -3.2694   3.9958   O
  32 S   -0.7091   -0.6718   2.6684   S
  33 S   -1.6092   -2.4552   -0.6261   S
  34 S   -2.0088   -1.0928   2.6821   S
  35 S   -2.3294   -2.3855   3.1784   S
  36 S   -1.9146   -3.7565   -0.1244   S
  37 C   -3.2083   -5.3225   2.3257   C
  38 C   -4.7066   -2.8693   1.1187   C
  39 O   -4.2205   -0.0913   2.0018   O
  40 O   -3.2014   -4.3043   -0.0588   O
  41 C   -4.4152   -0.8254   0.3205   C
  42 S   -2.8312   -0.0947   2.1744   S
  43 S   -2.4228   -1.4433   -1.1384   S
  44 S   -2.0418   0.8995   1.8669   S
  45 C   -1.6422   -0.4735   -1.4369   C
  46 C   4.1459   1.7525   -2.1850   C
  47 C   -3.9842   4.3194   -2.3442   C
  48 O   -0.2539   -2.1046   -0.6133   O
  49 O   -3.6191   -2.9264   3.2408   O
  50 O   -3.8099   -1.4067   -1.3244   O
  51 O   -2.5060   2.1056   1.3284   O

@<TRIPOS>BOND
   1   1   4   1
   2   1   5   1
   3   1  27   1
   4   1  31   1
   5   2   3   1
   6   2   9   1
   7   2  10   1
   8   3  32   1
   9   3  44   1
  10   4  10   1
  11   4  14   1
  12   4  27   1
  13   4  31   1
  14   5  27   1
  15   5  37   1
  16   5  28   1
  17   5  29   1
  18   5  31   1
  19   5  49   1
  20   5  40   1
  21   6  15   1
  22   6  17   1
  23   6  19   1
  24   6  20   1
  25   6  47   1
  26   7   8   1
  27   7  18   1
  28   7  21   1
  29   7  41   1
  30   7  51   1
  31   8   9   1
  32   8  18   1
  33   8  51   1
  34   9  10   1
  35   9  13   1
  36   9  16   1
  37   9  18   1
  38  10  13   1
  39  10  14   1
  40  10  31   1
  41  10  26   1
  42  11  12   1
  43  11  14   1
  44  11  15   1
  45  11  19   1
  46  11  25   1
  47  11  27   1
  48  11  45   1
  49  11  48   1
  50  12  14   1
  51  12  19   1
  52  12  20   1
  53  12  46   1
  54  13  14   1
  55  13  16   1
  56  13  46   1
  57  14  27   1
  58  14  46   1
  59  15  19   1
  60  15  21   1
  61  15  41   1
  62  15  45   1
  63  15  47   1
  64  16  17   1
  65  16  18   1
  66  16  20   1
  67  16  46   1
  68  17  18   1
  69  17  20   1
  70  17  47   1
  71  18  21   1
  72  18  47   1
  73  19  20   1
  74  20  46   1
  75  21  41   1
  76  21  47   1
  77  22  24   1
  78  22  35   1
  79  22  28   1
  80  23  25   1
  81  23  36   1
  82  23  29   1
  83  24  30   1
  84  24  31   1
  85  25  27   1
  86  26  30   1
  87  30  32   1
  88  32  34   1
  89  33  36   1
  90  33  43   1
  91  33  48   1
  92  34  35   1
  93  34  42   1
  94  35  49   1
  95  36  40   1
  96  37  38   1
  97  37  49   1
  98  37  40   1
  99  38  41   1
 100  38  49   1
 101  38  40   1
 102  39  42   1
 103  39  41   1
 104  41  50   1
 105  42  44   1
 106  43  45   1
 107  43  50   1
 108  44  51   1
