@<TRIPOS>MOLECULE
*****
 33 35 0 0 0
SMALL
GASTEIGER

@<TRIPOS>ATOM
   1 H    1.1990   -4.9080    2.7180 H
   2 N   -0.5090   -0.1020    0.4970 N
   3 H    2.2640   -3.6230    2.3210 H
   4 H   -1.0830   -4.6480    2.3150 H
   5 O   -1.7980    2.8180   -1.5620 O
   6 C    0.6520    0.7490    0.3450 C
   7 C    1.3460    0.5100   -1.0010 C
   8 C    0.6950    1.5440   -1.9230 C
   9 C    0.5070    2.7260   -0.9640 C
  10 C   -0.6360    3.6420   -1.3290 C
  11 O    0.2190    2.1110    0.3230 O
  12 H    1.3210    0.5730    1.1700 H
  13 H    1.2700   -0.5120   -1.3360 H
  14 O    2.7170    0.9590   -0.9270 O
  15 H    3.2850    0.3290   -0.4660 H
  16 H   -0.2610    1.2090   -2.2820 H
  17 H    1.4290    3.2840   -0.8970 H
  18 H   -0.3630    4.1870   -2.2240 H
  19 H   -0.8100    4.3380   -0.5190 H
  20 O    1.5130    1.8810   -3.0360 O
  21 H   -2.0970    1.1490   -0.2150 H
  22 N   -0.9250   -3.7300    1.9510 N
  23 C    0.3380   -3.2200    1.8960 C
  24 N    1.3420   -3.9960    2.3480 N
  25 N    0.5940   -2.0340    1.4290 N
  26 C   -0.5070   -1.3540    1.0150 C
  27 C   -1.8090   -1.7740    1.0280 C
  28 C   -2.1220   -3.0710    1.5270 C
  29 O   -3.1750   -3.6590    1.6390 O
  30 N   -2.6270   -0.7690    0.5180 N
  31 C   -1.8420    0.2130    0.2150 C
  32 H    2.4350    1.8360   -2.7380 H
  33 H   -2.5610    3.3420   -1.8350 H
@<TRIPOS>BOND
   1   1  24   1
   1   2   6   1
   1   2  26   1
   1   2  31   1
   1   3  24   1
   1   4  22   1
   1   5  10   1
   1   5  33   1
   1   6   7   1
   1   6  11   1
   1   6  12   1
   1   7   8   1
   1   7  13   1
   1   7  14   1
   1   8   9   1
   1   8  16   1
   1   8  20   1
   1   9  10   1
   1   9  11   1
   1   9  17   1
   1  10  18   1
   1  10  19   1
   1  14  15   1
   1  20  32   1
   1  21  31   1
   1  22  23   1
   1  22  28   1
   1  23  24   1
   1  23  25   1
   1  25  26   1
   1  26  27   1
   1  27  28   1
   1  27  30   1
   1  28  29   1
   1  30  31   1
