@<TRIPOS>MOLECULE
*****
 90 95 0 0 0
SMALL
GASTEIGER

@<TRIPOS>ATOM
   1 O   6.0955   2.2140   3.7059   O
   2 N   1.2360   2.9331   3.5186   N
   3 N   -0.4939   4.8355   1.5633   N
   4 N   0.5132   0.1384   4.2597   N
   5 N   5.5248   2.1994   4.7951   N
   6 N   2.7887   -1.8469   1.5715   N
   7 N   9.4968   5.1070   5.3505   N
   8 N   5.9388   4.9702   -1.4716   N
   9 O   0.4585   1.8299   3.7740   O
  10 N   2.7415   3.1816   4.4812   N
  11 O   1.7307   2.8444   2.1053   O
  12 O   -1.7227   5.3250   2.2706   O
  13 C   -1.8207   -1.2970   5.0424   C
  14 C   -0.2684   5.1855   0.1222   C
  15 N   3.6457   7.8704   2.9939   N
  16 O   -2.6523   -2.4397   4.5397   O
  17 N   4.0575   3.8275   -0.4306   N
  18 C   -0.6141   -0.8512   4.2709   C
  19 N   7.7484   4.1419   3.1686   N
  20 O   0.9023   0.8462   5.5237   O
  21 O   5.5040   0.8741   5.4974   O
  22 C   -2.1957   -0.6002   6.3167   C
  23 C   3.1879   -3.2687   1.8345   C
  24 O   1.3530   -1.5093   1.2980   O
  25 C   10.6339   5.5652   6.2147   C
  26 O   9.6902   3.9614   4.4016   O
  27 O   5.4873   5.4738   -2.8105   O
  28 O   6.5213   5.9224   -0.4696   O
  29 N   2.0181   2.5950   5.1123   N
  30 O   0.6248   2.2480   4.6784   O
  31 O   2.6941   1.2870   5.3991   O
  32 O   1.7419   3.5708   6.2176   O
  33 N   3.0711   8.8373   2.9688   N
  34 O   2.1480   9.3375   4.0401   O
  35 O   4.1087   9.9088   2.8102   O
  36 O   2.0727   8.5169   1.8961   O
  37 N   3.7307   3.9187   -1.5032   N
  38 O   2.2977   3.8765   -1.9443   O
  39 O   4.2668   5.2351   -1.9828   O
  40 O   4.2464   2.6305   -2.0729   O
  41 N   8.2233   3.5658   4.0102   N
  42 O   7.4564   2.6946   4.9605   O
  43 O   9.2427   2.6717   3.3688   O
  44 O   8.6487   4.6805   4.9194   O
  45 C   -0.9585   -0.0721   6.9805   C
  46 C   -0.4688   1.3098   6.6632   C
  47 C   0.7683   1.8379   7.3270   C
  48 C   1.5157   0.9842   8.3081   C
  49 C   1.0260   -0.3977   8.6254   C
  50 C   -0.2111   -0.9258   7.9616   C
  51 C   2.7528   1.5123   8.9719   C
  52 C   3.9172   0.6288   8.6345   C
  53 C   4.5775   1.1278   7.3835   C
  54 C   5.7418   0.2443   7.0462   C
  55 C   11.9329   5.3061   5.5108   C
  56 C   11.6617   4.6752   4.1772   C
  57 C   11.4657   5.5373   2.9655   C
  58 C   11.1944   4.9064   1.6320   C
  59 C   11.1192   3.4132   1.5101   C
  60 C   11.3152   2.5510   2.7218   C
  61 C   11.5865   3.1820   4.0554   C
  62 C   10.8480   2.7823   0.1766   C
  63 C   9.5873   1.9732   0.2534   C
  64 C   8.4154   2.8382   -0.1050   C
  65 C   8.1738   2.7653   -1.5836   C
  66 C   7.0020   3.6303   -1.9420   C
  67 C   5.9323   2.7876   -2.5710   C
  68 O   0.9604   4.6959   -0.5851   O
  69 C   -1.2718   6.0250   -0.6116   C
  70 C   -0.9146   7.4743   -0.4639   C
  71 C   -0.0089   8.1292   -1.4643   C
  72 C   0.3483   9.5785   -1.3166   C
  73 C   -0.2003   10.3730   -0.1686   C
  74 C   -1.1060   9.7181   0.8317   C
  75 C   -1.4632   8.2688   0.6841   C
  76 C   0.1569   11.8224   -0.0210   C
  77 C   0.8522   12.0348   1.2910   C
  78 C   2.1011   11.2050   1.3352   C
  79 C   1.9096   9.9690   0.5071   C
  80 C   3.1584   9.1393   0.5512   C
  81 C   4.1824   -3.7081   0.8012   C
  82 C   3.9271   -2.9748   -0.4822   C
  83 C   4.6088   -1.6649   -0.7459   C
  84 C   4.3534   -0.9316   -2.0293   C
  85 C   3.4164   -1.5081   -3.0489   C
  86 C   2.7347   -2.8179   -2.7851   C
  87 C   2.9900   -3.5513   -1.5018   C
  88 C   3.1610   -0.7747   -4.3322   C
  89 C   3.2992   0.7009   -4.1009   C
  90 C   3.6466   0.9512   -2.6633   C

@<TRIPOS>BOND
   1   1   5   1
   2   2   9   1
   3   2  11   1
   4   3  12   1
   5   3  14   1
   6   4  18   1
   7   4  20   1
   8   5  21   1
   9   6  23   1
  10   6  24   1
  11   7  25   1
  12   7  26   1
  13   8  27   1
  14   8  28   1
  15   9  12   1
  16   9  20   1
  17   9  30   1
  18  10  29   1
  19  11  30   1
  20  13  18   1
  21  13  16   1
  22  13  22   1
  23  14  68   1
  24  14  69   1
  25  15  33   1
  26  17  37   1
  27  18  24   1
  28  19  41   1
  29  20  30   1
  30  21  54   1
  31  22  45   1
  32  23  81   1
  33  25  55   1
  34  26  44   1
  35  27  39   1
  36  29  30   1
  37  29  31   1
  38  29  32   1
  39  33  34   1
  40  33  35   1
  41  33  36   1
  42  36  80   1
  43  37  38   1
  44  37  39   1
  45  37  40   1
  46  40  67   1
  47  40  90   1
  48  41  42   1
  49  41  43   1
  50  41  44   1
  51  45  46   1
  52  45  50   1
  53  46  47   1
  54  47  48   1
  55  48  49   1
  56  48  51   1
  57  49  50   1
  58  51  52   1
  59  52  53   1
  60  53  54   1
  61  55  56   1
  62  56  57   1
  63  56  61   1
  64  57  58   1
  65  58  59   1
  66  59  60   1
  67  59  62   1
  68  60  61   1
  69  62  63   1
  70  63  64   1
  71  64  65   1
  72  65  66   1
  73  66  67   1
  74  69  70   1
  75  70  71   1
  76  70  75   1
  77  71  72   1
  78  72  73   1
  79  73  74   1
  80  73  76   1
  81  74  75   1
  82  76  77   1
  83  77  78   1
  84  78  79   1
  85  79  80   1
  86  81  82   1
  87  82  83   1
  88  82  87   1
  89  83  84   1
  90  84  85   1
  91  85  86   1
  92  85  88   1
  93  86  87   1
  94  88  89   1
  95  89  90   1
