@<TRIPOS>MOLECULE
*****
 47 101 0 0 0
SMALL
GASTEIGER

@<TRIPOS>ATOM
   1 C   -0.1812   0.1260   4.0475   C
   2 S   -2.8757   -1.6107   2.4093   S
   3 S   -3.5494   0.3976   1.6263   S
   4 C   -0.9198   2.0475   3.4491   C
   5 S   -0.1026   1.9994   2.3178   S
   6 S   -2.7684   0.3963   0.5058   S
   7 S   0.6960   0.8205   2.1575   S
   8 S   -1.9722   -0.7362   0.3090   S
   9 S   -3.8355   2.1889   0.4122   S
  10 O   -2.8722   -2.6538   3.3430   O
  11 C   -1.3931   -2.6353   5.2250   C
  12 C   -6.2084   5.6237   5.6744   C
  13 C   -3.4726   8.5858   4.4206   C
  14 C   -1.9632   5.9254   1.0645   C
  15 C   -5.3453   9.2062   1.5354   C
  16 C   -3.5363   5.4714   0.6015   C
  17 C   1.4207   -2.5441   -0.1276   C
  18 C   0.3041   1.6102   -1.8251   C
  19 C   -5.7191   0.7884   3.9383   C
  20 C   -0.8925   1.7768   5.1448   C
  21 C   -4.5285   0.4756   6.2414   C
  22 C   -0.7348   5.1178   3.0069   C
  23 C   -4.4987   4.5358   7.5321   C
  24 C   0.2308   -2.4410   2.0073   C
  25 S   -2.0837   -1.6820   1.2680   S
  26 S   0.6350   -0.1667   3.0770   S
  27 O   -1.1145   -0.9126   -0.7833   O
  28 O   -4.2968   3.4236   -0.0599   O
  29 C   -3.3551   0.4233   4.9745   C
  30 O   1.5597   0.6279   1.0727   O
  31 S   -3.6710   -0.5061   2.6258   S
  32 C   -0.8231   2.7892   -0.8986   C
  33 S   -2.9326   1.5120   -0.2669   S
  34 C   -0.3132   3.1663   1.5667   C
  35 O   -1.3138   -2.8330   1.0618   O
  36 S   -4.2608   1.5878   1.5800   S
  37 O   1.3459   -1.3718   3.0289   O
  38 C   -6.3304   3.7318   3.1481   C
  39 C   -3.3238   3.7910   7.3645   C
  40 C   -5.6060   3.9512   5.5329   C
  41 C   -1.0282   5.2180   6.3453   C
  42 C   -2.8780   7.2609   5.5019   C
  43 C   -5.2778   5.5963   0.7140   C
  44 C   -6.6271   6.1880   3.2564   C
  45 O   -4.5066   -0.3231   3.7340   O
  46 O   -2.3197   1.8763   -1.4718   O
  47 O   -5.1957   2.0724   2.5025   O

@<TRIPOS>BOND
   1   1  11   1
   2   1  20   1
   3   1  26   1
   4   2  25   1
   5   2  31   1
   6   2  10   1
   7   3   6   1
   8   3  31   1
   9   3  36   1
  10   4   5   1
  11   4  20   1
  12   4  22   1
  13   5   7   1
  14   5  34   1
  15   6   8   1
  16   6  33   1
  17   7  26   1
  18   7  30   1
  19   8  25   1
  20   8  27   1
  21   9  33   1
  22   9  36   1
  23   9  28   1
  24  10  11   1
  25  11  20   1
  26  11  21   1
  27  11  24   1
  28  11  29   1
  29  12  13   1
  30  12  23   1
  31  12  38   1
  32  12  40   1
  33  12  42   1
  34  12  44   1
  35  13  14   1
  36  13  15   1
  37  13  22   1
  38  13  42   1
  39  13  44   1
  40  14  15   1
  41  14  16   1
  42  14  22   1
  43  14  32   1
  44  14  34   1
  45  15  16   1
  46  15  43   1
  47  15  44   1
  48  16  32   1
  49  16  43   1
  50  16  28   1
  51  17  18   1
  52  17  24   1
  53  17  30   1
  54  17  27   1
  55  17  35   1
  56  18  32   1
  57  18  34   1
  58  18  30   1
  59  18  27   1
  60  18  46   1
  61  19  21   1
  62  19  38   1
  63  19  40   1
  64  19  45   1
  65  20  21   1
  66  20  22   1
  67  20  29   1
  68  20  39   1
  69  20  41   1
  70  21  23   1
  71  21  29   1
  72  21  39   1
  73  21  40   1
  74  21  45   1
  75  22  34   1
  76  22  41   1
  77  22  42   1
  78  23  39   1
  79  23  40   1
  80  23  41   1
  81  23  42   1
  82  24  30   1
  83  24  35   1
  84  24  37   1
  85  25  35   1
  86  26  37   1
  87  28  43   1
  88  29  45   1
  89  30  34   1
  90  31  45   1
  91  32  34   1
  92  32  46   1
  93  33  46   1
  94  36  47   1
  95  38  40   1
  96  38  43   1
  97  38  44   1
  98  38  47   1
  99  39  41   1
 100  41  42   1
 101  43  44   1
