@<TRIPOS>MOLECULE
*****
 40 115 0 0 0
SMALL
GASTEIGER

@<TRIPOS>ATOM
   1 C   -0.1812   0.1260   4.0475   C
   2 C   -2.8757   -1.6107   2.4093   C
   3 C   -3.5494   0.3976   1.6263   C
   4 C   -0.9198   2.0475   3.4491   C
   5 C   -0.1026   1.9994   2.3178   C
   6 C   -2.7684   0.3963   0.5058   C
   7 C   0.6960   0.8205   2.1575   C
   8 C   -1.9722   -0.7362   0.3090   C
   9 C   -3.8355   2.1889   0.4122   C
  10 C   -1.3931   -2.6353   5.2250   C
  11 C   -6.2084   5.6237   5.6744   C
  12 C   -3.4726   8.5858   4.4206   C
  13 C   -1.9632   5.9254   1.0645   C
  14 C   -5.3453   9.2062   1.5354   C
  15 C   -3.5363   5.4714   0.6015   C
  16 C   1.4207   -2.5441   -0.1276   C
  17 C   0.3041   1.6102   -1.8251   C
  18 C   -5.7191   0.7884   3.9383   C
  19 C   -0.8925   1.7768   5.1448   C
  20 C   -4.5285   0.4756   6.2414   C
  21 C   -0.7348   5.1178   3.0069   C
  22 C   -4.4987   4.5358   7.5321   C
  23 C   0.2308   -2.4410   2.0073   C
  24 C   -2.0837   -1.6820   1.2680   C
  25 C   0.6350   -0.1667   3.0770   C
  26 C   1.5800   0.5796   1.0808   C
  27 C   -1.2053   -0.8819   -0.6701   C
  28 C   -3.3551   0.4233   4.9745   C
  29 C   -3.6710   -0.5061   2.6258   C
  30 C   -0.8231   2.7892   -0.8986   C
  31 C   -2.9326   1.5120   -0.2669   C
  32 C   -0.3132   3.1663   1.5667   C
  33 C   -4.2608   1.5878   1.5800   C
  34 C   -6.3304   3.7318   3.1481   C
  35 C   -3.3238   3.7910   7.3645   C
  36 C   -5.6060   3.9512   5.5329   C
  37 C   -1.0282   5.2180   6.3453   C
  38 C   -2.8780   7.2609   5.5019   C
  39 C   -5.2778   5.5963   0.7140   C
  40 C   -6.6271   6.1880   3.2564   C

@<TRIPOS>BOND
   1   1   7   1
   2   1  10   1
   3   1  19   1
   4   1  25   1
   5   2   3   1
   6   2  10   1
   7   2  23   1
   8   2  24   1
   9   2  28   1
  10   2  29   1
  11   3   6   1
  12   3   9   1
  13   3  18   1
  14   3  24   1
  15   3  29   1
  16   3  33   1
  17   4   5   1
  18   4  19   1
  19   4  21   1
  20   5   7   1
  21   5  19   1
  22   5  21   1
  23   5  26   1
  24   5  32   1
  25   6   8   1
  26   6   9   1
  27   6  24   1
  28   6  27   1
  29   6  31   1
  30   7  19   1
  31   7  25   1
  32   7  26   1
  33   8  24   1
  34   8  27   1
  35   9  15   1
  36   9  30   1
  37   9  31   1
  38   9  33   1
  39   9  34   1
  40   9  39   1
  41  10  19   1
  42  10  20   1
  43  10  23   1
  44  10  25   1
  45  10  28   1
  46  11  12   1
  47  11  22   1
  48  11  34   1
  49  11  36   1
  50  11  38   1
  51  11  40   1
  52  12  13   1
  53  12  14   1
  54  12  21   1
  55  12  38   1
  56  12  40   1
  57  13  14   1
  58  13  15   1
  59  13  21   1
  60  13  30   1
  61  13  32   1
  62  14  15   1
  63  14  39   1
  64  14  40   1
  65  15  30   1
  66  15  39   1
  67  16  17   1
  68  16  23   1
  69  16  24   1
  70  16  26   1
  71  16  27   1
  72  17  26   1
  73  17  27   1
  74  17  30   1
  75  17  31   1
  76  17  32   1
  77  18  20   1
  78  18  29   1
  79  18  33   1
  80  18  34   1
  81  18  36   1
  82  19  20   1
  83  19  21   1
  84  19  28   1
  85  19  35   1
  86  19  37   1
  87  20  22   1
  88  20  28   1
  89  20  29   1
  90  20  35   1
  91  20  36   1
  92  21  32   1
  93  21  37   1
  94  21  38   1
  95  22  35   1
  96  22  36   1
  97  22  37   1
  98  22  38   1
  99  23  24   1
 100  23  25   1
 101  23  26   1
 102  24  27   1
 103  25  26   1
 104  26  32   1
 105  27  31   1
 106  28  29   1
 107  30  31   1
 108  30  32   1
 109  33  34   1
 110  34  36   1
 111  34  39   1
 112  34  40   1
 113  35  37   1
 114  37  38   1
 115  39  40   1
