@<TRIPOS>MOLECULE
*****
 22 60 0 0 0
SMALL
GASTEIGER

@<TRIPOS>ATOM
   1 C   6.2408   -3.1055   3.4206   C
   2 C   5.3369   -0.2919   5.5840   C
   3 C   3.3098   -0.1624   6.2516   C
   4 C   -0.7422   -2.7297   6.9360   C
   5 C   3.8200   -2.0227   6.2639   C
   6 C   0.6665   -0.4408   1.0104   C
   7 C   -1.6493   -1.2102   3.8412   C
   8 C   1.1854   -2.5482   0.0063   C
   9 C   0.7731   -3.9977   0.6867   C
  10 C   0.3928   -6.5091   1.2083   C
  11 C   -1.4160   -5.6947   3.6060   C
  12 C   -1.4256   -3.2944   2.9144   C
  13 C   1.5075   -5.9800   5.0414   C
  14 C   4.9781   -3.6198   -0.1605   C
  15 C   3.9432   -0.3161   1.1820   C
  16 C   5.1860   -0.5878   1.9013   C
  17 C   3.2491   1.2036   2.7981   C
  18 C   1.2878   1.4745   3.6543   C
  19 C   -0.2293   -0.4473   5.1677   C
  20 C   2.7407   -3.6712   5.4721   C
  21 C   3.3462   -4.9565   1.6216   C
  22 C   3.1530   -4.2560   4.5042   C

@<TRIPOS>BOND
   1   1   2   1
   2   1   5   1
   3   1  14   1
   4   1  16   1
   5   1  21   1
   6   1  22   1
   7   2   3   1
   8   2   5   1
   9   2  16   1
  10   2  17   1
  11   3   4   1
  12   3   5   1
  13   3  17   1
  14   3  18   1
  15   3  19   1
  16   4   5   1
  17   4   7   1
  18   4  11   1
  19   4  12   1
  20   4  13   1
  21   4  19   1
  22   4  20   1
  23   5  20   1
  24   5  22   1
  25   6   7   1
  26   6   8   1
  27   6  12   1
  28   6  15   1
  29   6  17   1
  30   6  18   1
  31   7  12   1
  32   7  18   1
  33   7  19   1
  34   8   9   1
  35   8  12   1
  36   8  14   1
  37   8  15   1
  38   9  10   1
  39   9  12   1
  40   9  14   1
  41   9  21   1
  42  10  11   1
  43  10  12   1
  44  10  13   1
  45  10  21   1
  46  11  12   1
  47  11  13   1
  48  13  20   1
  49  13  21   1
  50  13  22   1
  51  14  15   1
  52  14  16   1
  53  14  21   1
  54  15  16   1
  55  15  17   1
  56  16  17   1
  57  17  18   1
  58  18  19   1
  59  20  22   1
  60  21  22   1
