@<TRIPOS>MOLECULE
*****
 30 84 0 0 0
SMALL
GASTEIGER

@<TRIPOS>ATOM
   1 C   0.4113   7.4073   0.5588   C
   2 C   0.2118   7.5520   3.6668   C
   3 C   0.2306   5.4707   2.2011   C
   4 C   2.3848   6.3114   -0.3746   C
   5 C   4.4612   5.1923   1.6640   C
   6 C   2.0431   4.4642   1.3432   C
   7 C   3.7779   7.6185   1.3078   C
   8 C   2.2741   12.9191   1.6051   C
   9 C   4.9575   13.2868   2.8124   C
  10 C   2.1904   13.9716   5.1597   C
  11 C   0.6555   8.9654   4.6181   C
  12 C   2.7504   6.2166   7.2410   C
  13 C   -0.3992   4.6803   4.2347   C
  14 C   1.3269   4.8690   2.3080   C
  15 C   4.7761   9.7010   5.3929   C
  16 C   2.4104   8.2549   7.1577   C
  17 C   1.3216   10.4482   3.8337   C
  18 C   4.5996   11.0404   5.1989   C
  19 C   1.8816   12.3243   6.5293   C
  20 C   3.4477   3.5136   4.0180   C
  21 C   5.7325   9.4335   3.2024   C
  22 C   5.1623   7.5403   0.5687   C
  23 C   5.5626   10.7868   3.0100   C
  24 C   2.2909   10.2111   1.6228   C
  25 C   4.7453   11.6377   0.0116   C
  26 C   5.0220   11.5449   4.0016   C
  27 C   1.7363   11.0597   2.6127   C
  28 C   5.9732   6.1742   2.3138   C
  29 C   4.6233   6.7072   6.6547   C
  30 C   5.3351   8.9175   4.4270   C

@<TRIPOS>BOND
   1   1   2   1
   2   1   3   1
   3   1   4   1
   4   1   6   1
   5   1  17   1
   6   1  24   1
   7   1  27   1
   8   2   3   1
   9   2  11   1
  10   2  12   1
  11   2  13   1
  12   2  16   1
  13   2  17   1
  14   3   6   1
  15   3  13   1
  16   3  14   1
  17   4   5   1
  18   4   6   1
  19   4   7   1
  20   4  22   1
  21   4  24   1
  22   5   6   1
  23   5  20   1
  24   5  22   1
  25   5  28   1
  26   6  14   1
  27   6  20   1
  28   7  22   1
  29   7  24   1
  30   7  25   1
  31   8   9   1
  32   8  10   1
  33   8  24   1
  34   8  25   1
  35   8  27   1
  36   9  10   1
  37   9  23   1
  38   9  25   1
  39   9  26   1
  40  10  17   1
  41  10  18   1
  42  10  19   1
  43  10  26   1
  44  10  27   1
  45  11  16   1
  46  11  17   1
  47  11  19   1
  48  12  13   1
  49  12  16   1
  50  12  20   1
  51  12  29   1
  52  13  14   1
  53  13  20   1
  54  14  20   1
  55  15  16   1
  56  15  18   1
  57  15  26   1
  58  15  29   1
  59  15  30   1
  60  16  18   1
  61  16  19   1
  62  16  29   1
  63  17  19   1
  64  17  27   1
  65  18  19   1
  66  18  26   1
  67  20  28   1
  68  20  29   1
  69  21  22   1
  70  21  23   1
  71  21  25   1
  72  21  28   1
  73  21  30   1
  74  22  25   1
  75  22  28   1
  76  23  25   1
  77  23  26   1
  78  23  30   1
  79  24  25   1
  80  24  27   1
  81  26  30   1
  82  28  29   1
  83  28  30   1
  84  29  30   1
