@<TRIPOS>MOLECULE
*****
 69 78 0 0 0
SMALL
GASTEIGER

@<TRIPOS>ATOM
   1 N   0.9402   -6.5586   3.3877   N
   2 O   0.4067   1.3369   1.9628   O
   3 S   -0.7363   0.5525   2.1583   S
   4 N   -1.3674   -6.3002   2.9701   N
   5 N   -1.4168   1.6264   -2.8562   N
   6 N   -1.5552   2.1705   0.6210   N
   7 N   3.3426   1.1859   -2.5995   N
   8 N   1.2407   0.7126   -4.3779   N
   9 S   -1.1308   -3.0410   3.6011   S
  10 S   -0.7192   -4.4190   0.3009   S
  11 S   0.1307   -2.5270   3.5443   S
  12 O   1.7116   -0.8538   3.0285   O
  13 O   -1.2004   -4.3347   4.1317   O
  14 O   -0.7957   -5.7127   0.8305   O
  15 S   0.4006   -1.3423   3.0795   S
  16 O   1.2284   -3.2694   3.9958   O
  17 S   -0.7091   -0.6718   2.6684   S
  18 S   -1.6092   -2.4552   -0.6261   S
  19 S   -2.0088   -1.0928   2.6821   S
  20 S   -2.3294   -2.3855   3.1784   S
  21 S   -1.9146   -3.7565   -0.1244   S
  22 N   -3.2083   -5.3225   2.3257   N
  23 O   -4.2205   -0.0913   2.0018   O
  24 O   -3.2014   -4.3043   -0.0588   O
  25 N   -4.4152   -0.8254   0.3205   N
  26 S   -2.8312   -0.0947   2.1744   S
  27 S   -2.4228   -1.4433   -1.1384   S
  28 S   -2.0418   0.8995   1.8669   S
  29 O   -0.2539   -2.1046   -0.6133   O
  30 O   -3.6191   -2.9264   3.2408   O
  31 O   -3.8099   -1.4067   -1.3244   O
  32 N   -2.5850   2.1566   1.0678   N
  33 O   -0.3268   -7.1310   3.4481   O
  34 O   2.1065   -7.3532   3.8959   O
  35 N   -2.9945   -6.6085   2.8913   N
  36 O   -2.4887   0.2061   -5.8045   O
  37 N   -1.1786   0.8817   -3.6650   N
  38 O   -0.0597   1.0503   -4.6497   O
  39 O   -0.9102   -0.4148   -2.9601   O
  40 C   -2.3744   1.0326   -4.5580   C
  41 C   -3.4559   2.0101   -4.2044   C
  42 O   -3.5807   1.0356   0.6172   O
  43 O   -2.8237   2.6228   2.2398   O
  44 O   -3.1136   3.1092   -0.3041   O
  45 N   3.7336   1.3277   -3.6447   N
  46 O   3.1253   0.6858   -4.8563   O
  47 O   3.6897   2.8052   -3.9001   O
  48 O   5.0455   0.6051   -3.5630   O
  49 N   1.0705   -0.0177   -5.2166   N
  50 O   0.4345   -1.3637   -5.0333   O
  51 O   0.2188   0.7032   -6.2191   O
  52 O   2.4800   -0.4072   -5.5509   O
  53 C   -4.6140   1.5731   -3.3572   C
  54 O   -4.5331   -7.0907   2.8930   O
  55 O   -1.9528   -7.0204   3.1882   O
  56 N   -5.5329   -0.8606   0.1970   N
  57 O   -6.2620   0.3196   -0.3734   O
  58 O   -6.2939   -2.0879   0.6028   O
  59 C   -5.6955   2.5506   -3.0036   C
  60 C   -5.6188   3.9650   -3.4972   C
  61 C   -4.4606   4.4019   -4.3444   C
  62 C   -3.3792   3.4245   -4.6980   C
  63 C   -6.7003   4.9424   -3.1437   C
  64 C   -6.7792   5.0828   -1.6523   C
  65 C   -5.4224   4.8520   -1.0559   C
  66 C   -5.5729   4.2731   0.3197   C
  67 C   -4.9036   2.9318   0.3737   C
  68 C   -4.3994   2.6802   1.7638   C
  69 O   -4.6078   3.7094   2.8349   O

@<TRIPOS>BOND
   1   1  33   1
   2   1  34   1
   3   2   3   1
   4   3  17   1
   5   3  28   1
   6   4  35   1
   7   4  33   1
   8   5  37   1
   9   6  32   1
  10   7  45   1
  11   8  49   1
  12   9  11   1
  13   9  20   1
  14   9  13   1
  15  10  21   1
  16  10  14   1
  17  11  15   1
  18  11  16   1
  19  12  15   1
  20  13  33   1
  21  14  33   1
  22  15  17   1
  23  16  34   1
  24  16  33   1
  25  17  19   1
  26  18  21   1
  27  18  27   1
  28  18  29   1
  29  19  20   1
  30  19  26   1
  31  20  30   1
  32  21  24   1
  33  22  35   1
  34  23  26   1
  35  23  57   1
  36  24  35   1
  37  24  54   1
  38  25  56   1
  39  26  28   1
  40  27  31   1
  41  28  32   1
  42  30  35   1
  43  30  54   1
  44  31  57   1
  45  32  43   1
  46  32  42   1
  47  32  44   1
  48  35  55   1
  49  35  54   1
  50  36  40   1
  51  37  38   1
  52  37  39   1
  53  37  40   1
  54  38  51   1
  55  40  41   1
  56  41  53   1
  57  41  62   1
  58  43  68   1
  59  45  46   1
  60  45  47   1
  61  45  48   1
  62  46  52   1
  63  49  50   1
  64  49  51   1
  65  49  52   1
  66  53  59   1
  67  56  57   1
  68  56  58   1
  69  59  60   1
  70  60  61   1
  71  60  63   1
  72  61  62   1
  73  63  64   1
  74  64  65   1
  75  65  66   1
  76  66  67   1
  77  67  68   1
  78  68  69   1
