@<TRIPOS>MOLECULE
*****
 38 41 0 0 0
SMALL
GASTEIGER

@<TRIPOS>ATOM
   1 S   8.3634   -0.3159   -0.4581   S
   2 S   7.5559   1.6681   2.4353   S
   3 S   6.5682   0.7428   2.7901   S
   4 S   7.2871   -1.1679   -0.1751   S
   5 S   5.2856   0.9786   2.3307   S
   6 S   5.9945   -0.9374   -0.6335   S
   7 S   5.0838   2.1046   1.5532   S
   8 S   5.6540   0.1652   -1.4256   S
   9 S   6.0657   2.9815   1.1765   S
  10 S   6.7322   0.9944   -1.7505   S
  11 S   8.0320   0.7576   -1.2874   S
  12 S   7.3606   2.7801   1.6141   S
  13 O   8.8445   1.4647   2.9433   O
  14 O   6.8532   -0.3795   3.5771   O
  15 N   11.7269   3.4442   1.4371   N
  16 N   9.5056   -2.0719   2.5939   N
  17 C   11.0633   -2.2667   3.0592   C
  18 O   9.6548   -0.5191   0.0430   O
  19 O   7.5148   -2.3076   0.6054   O
  20 O   4.2319   0.1105   2.6409   O
  21 O   4.9949   -1.8529   -0.2832   O
  22 O   3.7833   2.3783   1.1130   O
  23 O   4.3460   0.4173   -1.8565   O
  24 O   5.7499   4.0700   0.3545   O
  25 O   6.5013   2.1048   -2.5713   O
  26 O   9.0504   1.6376   -1.6726   O
  27 O   8.4020   3.6425   1.2508   O
  28 N   12.6292   4.1021   1.5736   N
  29 O   12.6311   5.4963   1.0203   O
  30 O   13.8476   3.5692   2.2676   O
  31 O   12.1281   -3.1032   3.7045   O
  32 O   8.4105   -3.0806   2.4114   O
  33 O   13.4429   -2.8467   3.0295   O
  34 O   13.4715   -1.4405   2.5084   O
  35 O   12.6226   -0.5659   3.3828   O
  36 O   13.1712   0.8301   3.3769   O
  37 O   14.3859   0.8862   2.4985   O
  38 O   14.5067   2.2560   1.8992   O

@<TRIPOS>BOND
   1   1   4   1
   2   1  11   1
   3   1  18   1
   4   2   3   1
   5   2  12   1
   6   2  13   1
   7   3   5   1
   8   3  14   1
   9   4   6   1
  10   4  19   1
  11   5   7   1
  12   5  20   1
  13   6   8   1
  14   6  21   1
  15   7   9   1
  16   7  22   1
  17   8  10   1
  18   8  23   1
  19   9  12   1
  20   9  24   1
  21  10  11   1
  22  10  25   1
  23  11  26   1
  24  12  27   1
  25  13  17   1
  26  15  28   1
  27  16  32   1
  28  16  17   1
  29  17  18   1
  30  17  31   1
  31  18  32   1
  32  19  32   1
  33  28  29   1
  34  28  30   1
  35  30  38   1
  36  31  33   1
  37  33  34   1
  38  34  35   1
  39  35  36   1
  40  36  37   1
  41  37  38   1
