@<TRIPOS>MOLECULE
*****
 32 34 0 0 0
SMALL
GASTEIGER

@<TRIPOS>ATOM
   1 C   -3.8818    2.8605    3.4921 C
   2 C   -1.5284   -0.7424    3.2284 C
   3 C   -3.1734    3.2501    4.7907 C
   4 C   -2.9508    4.7462    4.5749 C
   5 C   -2.2346    1.2225    2.5377 C
   6 C   -4.2031    5.1657    3.8188 C
   7 C   -1.4355    1.1978    1.4118 C
   8 C   -4.0168    6.3512    2.9052 C
   9 C   -0.6381    0.0422    1.2333 C
  10 C   -2.5203    3.0126    1.3243 C
  11 H   -1.4815   -1.3984    3.9203 H
  12 H   -4.9054    5.3261    4.4687 H
  13 H   -3.8282    7.1254    3.4303 H
  14 H   -3.2879    6.2000    2.2518 H
  15 H   -5.2656    7.4647    1.9835 H
  16 H   -2.8730    3.8660    1.0734 H
  17 H    0.6023   -0.9562    0.0933 H
  18 H    0.2260    0.4318   -0.4667 H
  19 H   -4.5401    2.1181    3.6520 H
  20 H   -2.3918    2.7453    4.9121 H
  21 H   -4.2148    2.2312    5.9971 H
  22 H   -2.1906    4.8737    4.0370 H
  23 H   -3.3023    5.1719    6.3472 H
  24 N   -0.7244   -0.9244    2.1725 N
  25 N    0.1874   -0.1512    0.2053 N
  26 N   -2.3193    0.2900    3.5085 N
  27 N   -1.6229    2.3391    0.6499 N
  28 N   -2.9295    2.4060    2.4735 N
  29 O   -4.5561    4.0069    3.0219 O
  30 O   -4.0605    3.0949    5.8770 O
  31 O   -2.7086    5.4875    5.7591 O
  32 O   -5.2262    6.6031    2.2052 O
@<TRIPOS>BOND
   1   1   3   1
   1   1  19   1
   1   1  28   1
   1   1  29   1
   1   2  11   1
   1   2  24   1
   1   2  26   1
   1   3   4   1
   1   3  20   1
   1   3  30   1
   1   4   6   1
   1   4  22   1
   1   4  31   1
   1   5   7   1
   1   5  26   1
   1   5  28   1
   1   6   8   1
   1   6  12   1
   1   6  29   1
   1   7   9   1
   1   7  27   1
   1   8  13   1
   1   8  14   1
   1   8  32   1
   1   9  24   1
   1   9  25   1
   1  10  16   1
   1  10  27   1
   1  10  28   1
   1  15  32   1
   1  17  25   1
   1  18  25   1
   1  21  30   1
   1  23  31   1
