@<TRIPOS>MOLECULE
*****
 6 0 0 0 0
SMALL
GASTEIGER

@<TRIPOS>ATOM
   1 C   -0.9198   2.0475   3.4491   C
   2 C   -1.2052   3.8363   2.2363   C
   3 C   -3.3551   0.4233   4.9745   C
   4 C   -0.9675   1.0860   4.3911   C
   5 C   -1.5982   3.2242   3.3671   C
   6 C   -4.0949   4.3040   1.3075   C


@<TRIPOS>BOND
