@<TRIPOS>MOLECULE
*****
 38 108 0 0 0
SMALL
GASTEIGER

@<TRIPOS>ATOM
   1 C   -0.1812   0.1260   4.0475   C
   2 C   -2.8757   -1.6107   2.4093   C
   3 C   -3.5494   0.3976   1.6263   C
   4 C   -0.1026   1.9994   2.3178   C
   5 C   -2.7684   0.3963   0.5058   C
   6 C   0.6960   0.8205   2.1575   C
   7 C   -1.9722   -0.7362   0.3090   C
   8 C   -3.8355   2.1889   0.4122   C
   9 C   -1.3931   -2.6353   5.2250   C
  10 C   -6.2084   5.6237   5.6744   C
  11 C   -3.4726   8.5858   4.4206   C
  12 C   -1.9632   5.9254   1.0645   C
  13 C   -5.3453   9.2062   1.5354   C
  14 C   -3.5363   5.4714   0.6015   C
  15 C   1.4207   -2.5441   -0.1276   C
  16 C   0.3041   1.6102   -1.8251   C
  17 C   -5.7191   0.7884   3.9383   C
  18 C   -0.8925   1.7768   5.1448   C
  19 C   -4.5285   0.4756   6.2414   C
  20 C   -0.7348   5.1178   3.0069   C
  21 C   -4.4987   4.5358   7.5321   C
  22 C   0.2308   -2.4410   2.0073   C
  23 C   -2.0837   -1.6820   1.2680   C
  24 C   0.6350   -0.1667   3.0770   C
  25 C   1.5800   0.5796   1.0808   C
  26 C   -1.2053   -0.8819   -0.6701   C
  27 C   -3.6710   -0.5061   2.6258   C
  28 C   -0.8231   2.7892   -0.8986   C
  29 C   -2.9326   1.5120   -0.2669   C
  30 C   -0.3132   3.1663   1.5667   C
  31 C   -4.2608   1.5878   1.5800   C
  32 C   -6.3304   3.7318   3.1481   C
  33 C   -3.3238   3.7910   7.3645   C
  34 C   -5.6060   3.9512   5.5329   C
  35 C   -1.0282   5.2180   6.3453   C
  36 C   -2.8780   7.2609   5.5019   C
  37 C   -5.2778   5.5963   0.7140   C
  38 C   -6.6271   6.1880   3.2564   C

@<TRIPOS>BOND
   1   1   9   1
   2   1  18   1
   3   1  24   1
   4   2   3   1
   5   2   9   1
   6   2  19   1
   7   2  22   1
   8   2  23   1
   9   2  27   1
  10   3   5   1
  11   3   8   1
  12   3  17   1
  13   3  23   1
  14   3  27   1
  15   3  31   1
  16   4   6   1
  17   4  18   1
  18   4  20   1
  19   4  25   1
  20   4  30   1
  21   5   7   1
  22   5   8   1
  23   5  23   1
  24   5  26   1
  25   5  29   1
  26   6  18   1
  27   6  24   1
  28   6  25   1
  29   7  23   1
  30   7  26   1
  31   8  14   1
  32   8  29   1
  33   8  31   1
  34   8  32   1
  35   8  37   1
  36   9  18   1
  37   9  19   1
  38   9  22   1
  39   9  24   1
  40  10  11   1
  41  10  21   1
  42  10  32   1
  43  10  34   1
  44  10  36   1
  45  10  38   1
  46  11  12   1
  47  11  13   1
  48  11  20   1
  49  11  36   1
  50  11  38   1
  51  12  13   1
  52  12  14   1
  53  12  20   1
  54  12  28   1
  55  12  30   1
  56  13  14   1
  57  13  37   1
  58  13  38   1
  59  14  28   1
  60  14  29   1
  61  14  37   1
  62  15  16   1
  63  15  22   1
  64  15  23   1
  65  15  24   1
  66  15  25   1
  67  15  26   1
  68  16  25   1
  69  16  26   1
  70  16  28   1
  71  16  29   1
  72  16  30   1
  73  17  19   1
  74  17  27   1
  75  17  31   1
  76  17  32   1
  77  17  34   1
  78  18  19   1
  79  18  20   1
  80  18  24   1
  81  18  33   1
  82  18  35   1
  83  19  21   1
  84  19  27   1
  85  19  33   1
  86  19  34   1
  87  20  30   1
  88  20  35   1
  89  20  36   1
  90  21  33   1
  91  21  34   1
  92  21  35   1
  93  21  36   1
  94  22  23   1
  95  22  24   1
  96  23  26   1
  97  24  25   1
  98  25  30   1
  99  26  29   1
 100  28  29   1
 101  28  30   1
 102  31  32   1
 103  32  34   1
 104  32  37   1
 105  32  38   1
 106  33  35   1
 107  35  36   1
 108  37  38   1
