@<TRIPOS>MOLECULE
*****
 55 59 0 0 0
SMALL
GASTEIGER

@<TRIPOS>ATOM
   1 S   -2.8757   -1.6107   2.4093   S
   2 S   -3.5494   0.3976   1.6263   S
   3 O   -2.8722   -2.6538   3.3430   O
   4 S   -0.1026   1.9994   2.3178   S
   5 S   -2.7684   0.3963   0.5058   S
   6 S   0.6960   0.8205   2.1575   S
   7 S   -1.9722   -0.7362   0.3090   S
   8 S   -3.8355   2.1889   0.4122   S
   9 O   -0.8615   2.0150   3.4941   O
  10 N   -5.3453   9.2062   1.5354   N
  11 N   1.4207   -2.5441   -0.1276   N
  12 N   -4.5285   0.4756   6.2414   N
  13 N   -4.4987   4.5358   7.5321   N
  14 N   0.2308   -2.4410   2.0073   N
  15 S   -2.0837   -1.6820   1.2680   S
  16 S   0.6350   -0.1667   3.0770   S
  17 O   -1.1145   -0.9126   -0.7833   O
  18 O   -4.2968   3.4236   -0.0599   O
  19 O   1.5597   0.6279   1.0727   O
  20 O   -1.3138   -2.8330   1.0618   O
  21 S   -3.6710   -0.5061   2.6258   S
  22 N   -0.8231   2.7892   -0.8986   N
  23 S   -2.9326   1.5120   -0.2669   S
  24 O   1.3459   -1.3718   3.0289   O
  25 S   -4.2608   1.5878   1.5800   S
  26 O   -4.5066   -0.3231   3.7340   O
  27 N   -6.3304   3.7318   3.1481   N
  28 O   -2.3197   1.8763   -1.4718   O
  29 O   -5.1957   2.0724   2.5025   O
  30 O   -4.2258   10.1301   1.9139   O
  31 C   -6.5313   9.7337   0.7836   C
  32 O   1.4502   -3.6206   0.7832   O
  33 O   2.3488   -2.7547   -1.2871   O
  34 O   -3.8735   -0.5348   5.3470   O
  35 O   -5.4448   0.0231   7.3394   O
  36 O   -5.4509   3.4498   7.1271   O
  37 O   -4.5436   5.0918   8.9245   O
  38 N   0.8279   -3.3889   1.9041   N
  39 O   -7.6508   8.8099   0.4051   O
  40 O   0.7260   -4.4573   2.9521   O
  41 N   -0.3233   3.0704   -1.8664   N
  42 O   -0.6690   4.3651   -2.5405   O
  43 O   0.6889   2.1508   -2.4827   O
  44 N   -7.4394   3.5599   3.2270   N
  45 O   -8.0853   2.5298   4.1054   O
  46 O   -8.0198   4.8746   3.6566   O
  47 O   -7.7235   2.9812   1.8725   O
  48 O   -6.5978   11.1849   0.4102   O
  49 O   -7.3822   11.3392   -0.8590   O
  50 C   -8.4074   10.2479   -0.9489   C
  51 O   -8.8319   9.8457   0.4323   O
  52 O   -9.2241   8.3979   0.4331   O
  53 N   -8.0218   7.5543   0.7380   N
  54 N   -7.9149   7.3535   2.2206   N
  55 O   -8.6722   6.1199   2.6140   O

@<TRIPOS>BOND
   1   1  15   1
   2   1  21   1
   3   1   3   1
   4   2   5   1
   5   2  21   1
   6   2  25   1
   7   4   6   1
   8   4   9   1
   9   5   7   1
  10   5  23   1
  11   6  16   1
  12   6  19   1
  13   7  15   1
  14   7  17   1
  15   8  23   1
  16   8  25   1
  17   8  18   1
  18  10  30   1
  19  10  31   1
  20  11  32   1
  21  11  33   1
  22  12  34   1
  23  12  35   1
  24  13  36   1
  25  13  37   1
  26  14  38   1
  27  15  20   1
  28  16  24   1
  29  17  32   1
  30  19  33   1
  31  20  32   1
  32  21  26   1
  33  22  41   1
  34  23  28   1
  35  24  32   1
  36  24  40   1
  37  25  29   1
  38  26  34   1
  39  27  44   1
  40  28  42   1
  41  29  47   1
  42  31  39   1
  43  31  48   1
  44  32  38   1
  45  35  36   1
  46  38  40   1
  47  41  42   1
  48  41  43   1
  49  44  45   1
  50  44  46   1
  51  44  47   1
  52  46  55   1
  53  48  49   1
  54  49  50   1
  55  50  51   1
  56  51  52   1
  57  52  53   1
  58  53  54   1
  59  54  55   1
