@<TRIPOS>MOLECULE
*****
 67 116 0 0 0
SMALL
GASTEIGER

@<TRIPOS>ATOM
   1 C   -0.1812   0.1260   4.0475   C
   2 S   -2.8757   -1.6107   2.4093   S
   3 S   -3.5494   0.3976   1.6263   S
   4 O   -2.8722   -2.6538   3.3430   O
   5 S   -0.1026   1.9994   2.3178   S
   6 S   -2.7684   0.3963   0.5058   S
   7 S   0.6960   0.8205   2.1575   S
   8 S   -1.9722   -0.7362   0.3090   S
   9 S   -3.8355   2.1889   0.4122   S
  10 O   -0.8615   2.0150   3.4941   O
  11 C   -1.3931   -2.6353   5.2250   C
  12 C   -6.2084   5.6237   5.6744   C
  13 C   -3.4726   8.5858   4.4206   C
  14 C   -1.9632   5.9254   1.0645   C
  15 C   -5.3453   9.2062   1.5354   C
  16 C   -3.5363   5.4714   0.6015   C
  17 N   1.4207   -2.5441   -0.1276   N
  18 C   0.3041   1.6102   -1.8251   C
  19 C   -5.7191   0.7884   3.9383   C
  20 C   -0.8925   1.7768   5.1448   C
  21 C   -4.5285   0.4756   6.2414   C
  22 C   -0.7348   5.1178   3.0069   C
  23 N   -4.4987   4.5358   7.5321   N
  24 N   0.2308   -2.4410   2.0073   N
  25 S   -2.0837   -1.6820   1.2680   S
  26 S   0.6350   -0.1667   3.0770   S
  27 O   -1.1145   -0.9126   -0.7833   O
  28 O   -4.2968   3.4236   -0.0599   O
  29 O   1.5597   0.6279   1.0727   O
  30 O   -1.3138   -2.8330   1.0618   O
  31 S   -3.6710   -0.5061   2.6258   S
  32 N   -0.8231   2.7892   -0.8986   N
  33 S   -2.9326   1.5120   -0.2669   S
  34 C   -0.3132   3.1663   1.5667   C
  35 O   1.3459   -1.3718   3.0289   O
  36 S   -4.2608   1.5878   1.5800   S
  37 O   -4.5066   -0.3231   3.7340   O
  38 N   -6.3304   3.7318   3.1481   N
  39 N   -3.3238   3.7910   7.3645   N
  40 C   -5.6060   3.9512   5.5329   C
  41 C   -1.0282   5.2180   6.3453   C
  42 C   -2.8780   7.2609   5.5019   C
  43 N   -5.2778   5.5963   0.7140   N
  44 C   -6.6271   6.1880   3.2564   C
  45 O   -2.3197   1.8763   -1.4718   O
  46 O   -5.1957   2.0724   2.5025   O
  47 O   1.4502   -3.6206   0.7832   O
  48 O   2.3488   -2.7547   -1.2871   O
  49 O   -5.4509   3.4498   7.1271   O
  50 O   -4.5436   5.0918   8.9245   O
  51 N   0.8279   -3.3889   1.9041   N
  52 O   0.7260   -4.4573   2.9521   O
  53 N   -0.3233   3.0704   -1.8664   N
  54 O   -0.6690   4.3651   -2.5405   O
  55 O   0.6889   2.1508   -2.4827   O
  56 N   -7.4394   3.5599   3.2270   N
  57 O   -8.0853   2.5298   4.1054   O
  58 O   -8.0198   4.8746   3.6566   O
  59 O   -7.7235   2.9812   1.8725   O
  60 N   -2.8634   4.2260   8.2942   N
  61 O   -1.3958   4.4936   8.4505   O
  62 O   -3.5440   5.5455   8.5079   O
  63 O   -3.0569   3.1002   9.2664   O
  64 N   -5.3100   4.9671   -0.2181   N
  65 O   -4.0981   4.3448   -0.8457   O
  66 O   -6.2400   3.8309   0.0884   O
  67 O   -5.6732   5.9951   -1.2482   O

@<TRIPOS>BOND
   1   1  11   1
   2   1  20   1
   3   1  26   1
   4   2  25   1
   5   2  31   1
   6   2   4   1
   7   3   6   1
   8   3  31   1
   9   3  36   1
  10   4  11   1
  11   5   7   1
  12   5  34   1
  13   5  10   1
  14   6   8   1
  15   6  33   1
  16   7  26   1
  17   7  29   1
  18   8  25   1
  19   8  27   1
  20   9  33   1
  21   9  36   1
  22   9  28   1
  23  10  20   1
  24  11  20   1
  25  11  21   1
  26  11  52   1
  27  12  13   1
  28  12  40   1
  29  12  42   1
  30  12  44   1
  31  12  49   1
  32  12  58   1
  33  13  14   1
  34  13  15   1
  35  13  22   1
  36  13  42   1
  37  13  44   1
  38  14  15   1
  39  14  16   1
  40  14  22   1
  41  14  34   1
  42  14  54   1
  43  15  16   1
  44  15  44   1
  45  15  67   1
  46  16  28   1
  47  16  54   1
  48  16  65   1
  49  17  47   1
  50  17  48   1
  51  18  34   1
  52  18  29   1
  53  18  27   1
  54  18  45   1
  55  18  48   1
  56  18  55   1
  57  19  21   1
  58  19  40   1
  59  19  37   1
  60  19  57   1
  61  20  21   1
  62  20  22   1
  63  20  41   1
  64  20  61   1
  65  21  40   1
  66  21  37   1
  67  21  49   1
  68  21  63   1
  69  22  34   1
  70  22  41   1
  71  22  42   1
  72  23  49   1
  73  23  50   1
  74  24  51   1
  75  25  30   1
  76  26  35   1
  77  27  47   1
  78  28  65   1
  79  29  34   1
  80  29  48   1
  81  30  47   1
  82  31  37   1
  83  32  53   1
  84  33  45   1
  85  34  54   1
  86  35  47   1
  87  35  52   1
  88  36  46   1
  89  38  56   1
  90  39  60   1
  91  40  49   1
  92  40  58   1
  93  41  42   1
  94  41  50   1
  95  41  61   1
  96  42  50   1
  97  43  64   1
  98  44  58   1
  99  44  66   1
 100  45  54   1
 101  46  59   1
 102  47  51   1
 103  49  62   1
 104  51  52   1
 105  53  54   1
 106  53  55   1
 107  56  57   1
 108  56  58   1
 109  56  59   1
 110  59  66   1
 111  60  61   1
 112  60  62   1
 113  60  63   1
 114  64  65   1
 115  64  66   1
 116  64  67   1
