@<TRIPOS>MOLECULE
*****
 11 0 0 0 0
SMALL
GASTEIGER

@<TRIPOS>ATOM
   1 C   -3.5494   0.3976   1.6263   C
   2 C   -0.9198   2.0475   3.4491   C
   3 C   -0.1026   1.9994   2.3178   C
   4 C   -2.7684   0.3963   0.5058   C
   5 C   -3.8355   2.1889   0.4122   C
   6 C   -1.2052   3.8363   2.2363   C
   7 C   -0.8231   2.7892   -0.8986   C
   8 C   -2.9326   1.5120   -0.2669   C
   9 C   -0.3132   3.1663   1.5667   C
  10 C   -1.5982   3.2242   3.3671   C
  11 C   -4.2608   1.5878   1.5800   C

@<TRIPOS>BOND
