@<TRIPOS>MOLECULE
*****
 14 0 0 0 0
SMALL
GASTEIGER

@<TRIPOS>ATOM
   1 C   -0.1812   0.1260   4.0475   C
   2 C   -2.8757   -1.6107   2.4093   C
   3 C   -3.5494   0.3976   1.6263   C
   4 C   -0.9198   2.0475   3.4491   C
   5 C   -0.1026   1.9994   2.3178   C
   6 C   -2.7684   0.3963   0.5058   C
   7 C   0.6960   0.8205   2.1575   C
   8 C   -1.9722   -0.7362   0.3090   C
   9 C   -2.0837   -1.6820   1.2680   C
  10 C   0.6350   -0.1667   3.0770   C
  11 C   -0.9675   1.0860   4.3911   C
  12 C   -3.6710   -0.5061   2.6258   C
  13 C   0.2308   -2.4410   2.0073   C
  14 C   -3.3551   0.4233   4.9745   C

@<TRIPOS>BOND
