@<TRIPOS>MOLECULE
*****
 44 0 0 0 0
SMALL
GASTEIGER

@<TRIPOS>ATOM
   1 C   -0.1812   0.1260   4.0475   C
   2 C   -2.8757   -1.6107   2.4093   C
   3 C   -3.5494   0.3976   1.6263   C
   4 C   -0.9198   2.0475   3.4491   C
   5 C   -0.1026   1.9994   2.3178   C
   6 C   -2.7684   0.3963   0.5058   C
   7 C   0.6960   0.8205   2.1575   C
   8 C   -1.9722   -0.7362   0.3090   C
   9 C   -3.8355   2.1889   0.4122   C
  10 C   -1.2052   3.8363   2.2363   C
  11 C   -1.3931   -2.6353   5.2250   C
  12 C   -6.2084   5.6237   5.6744   C
  13 C   -3.4726   8.5858   4.4206   C
  14 C   -1.9632   5.9254   1.0645   C
  15 C   -5.3453   9.2062   1.5354   C
  16 C   -3.5363   5.4714   0.6015   C
  17 C   1.4207   -2.5441   -0.1276   C
  18 C   0.3041   1.6102   -1.8251   C
  19 C   -5.7191   0.7884   3.9383   C
  20 C   -0.8925   1.7768   5.1448   C
  21 C   -4.5285   0.4756   6.2414   C
  22 C   -0.7348   5.1178   3.0069   C
  23 C   -4.4987   4.5358   7.5321   C
  24 C   0.2308   -2.4410   2.0073   C
  25 C   -2.0837   -1.6820   1.2680   C
  26 C   0.6350   -0.1667   3.0770   C
  27 C   1.5800   0.5796   1.0808   C
  28 C   -1.2053   -0.8819   -0.6701   C
  29 C   -3.3551   0.4233   4.9745   C
  30 C   -0.9675   1.0860   4.3911   C
  31 C   -3.6710   -0.5061   2.6258   C
  32 C   -0.8231   2.7892   -0.8986   C
  33 C   -2.9326   1.5120   -0.2669   C
  34 C   -0.3132   3.1663   1.5667   C
  35 C   -1.5982   3.2242   3.3671   C
  36 C   -4.2608   1.5878   1.5800   C
  37 C   -4.0949   4.3040   1.3075   C
  38 C   -6.3304   3.7318   3.1481   C
  39 C   -3.3238   3.7910   7.3645   C
  40 C   -5.6060   3.9512   5.5329   C
  41 C   -1.0282   5.2180   6.3453   C
  42 C   -2.8780   7.2609   5.5019   C
  43 C   -5.2778   5.5963   0.7140   C
  44 C   -6.6271   6.1880   3.2564   C

@<TRIPOS>BOND
