@<TRIPOS>MOLECULE
*****
 90 144 0 0 0
SMALL
GASTEIGER

@<TRIPOS>ATOM
   1 C   -0.1812   0.1260   4.0475   C
   2 S   -2.8757   -1.6107   2.4093   S
   3 S   -3.5494   0.3976   1.6263   S
   4 C   -0.9198   2.0475   3.4491   C
   5 S   -0.1026   1.9994   2.3178   S
   6 S   -2.7684   0.3963   0.5058   S
   7 S   0.6960   0.8205   2.1575   S
   8 S   -1.9722   -0.7362   0.3090   S
   9 S   -3.8355   2.1889   0.4122   S
  10 O   -2.8722   -2.6538   3.3430   O
  11 C   -1.3931   -2.6353   5.2250   C
  12 C   -6.2084   5.6237   5.6744   C
  13 C   -3.4726   8.5858   4.4206   C
  14 C   -1.9632   5.9254   1.0645   C
  15 N   -5.3453   9.2062   1.5354   N
  16 C   -3.5363   5.4714   0.6015   C
  17 N   1.4207   -2.5441   -0.1276   N
  18 C   0.3041   1.6102   -1.8251   C
  19 C   -5.7191   0.7884   3.9383   C
  20 C   -0.8925   1.7768   5.1448   C
  21 N   -4.2655   0.4911   6.0661   N
  22 C   -0.7348   5.1178   3.0069   C
  23 N   -4.4987   4.5358   7.5321   N
  24 N   0.2308   -2.4410   2.0073   N
  25 S   -2.0837   -1.6820   1.2680   S
  26 S   0.6350   -0.1667   3.0770   S
  27 O   -1.1145   -0.9126   -0.7833   O
  28 O   -4.2968   3.4236   -0.0599   O
  29 N   -3.3551   0.4233   4.9745   N
  30 O   1.5597   0.6279   1.0727   O
  31 S   -3.6710   -0.5061   2.6258   S
  32 N   -0.8231   2.7892   -0.8986   N
  33 S   -2.9326   1.5120   -0.2669   S
  34 C   -0.3132   3.1663   1.5667   C
  35 O   -1.3138   -2.8330   1.0618   O
  36 S   -4.2608   1.5878   1.5800   S
  37 O   1.3459   -1.3718   3.0289   O
  38 N   -6.3304   3.7318   3.1481   N
  39 C   -3.3238   3.7910   7.3645   C
  40 C   -5.6060   3.9512   5.5329   C
  41 C   -1.0282   5.2180   6.3453   C
  42 C   -2.8780   7.2609   5.5019   C
  43 C   -5.2778   5.5963   0.7140   C
  44 C   -6.6271   6.1880   3.2564   C
  45 O   -4.5066   -0.3231   3.7340   O
  46 O   -2.3197   1.8763   -1.4718   O
  47 O   -5.1957   2.0724   2.5025   O
  48 O   -4.2258   10.1301   1.9139   O
  49 O   -6.5313   9.7337   0.7836   O
  50 O   1.4502   -3.6206   0.7832   O
  51 O   2.3488   -2.7547   -1.2871   O
  52 O   -3.8735   -0.5348   5.3470   O
  53 O   -5.4448   0.0231   7.3394   O
  54 O   -5.4509   3.4498   7.1271   O
  55 O   -4.5436   5.0918   8.9245   O
  56 N   0.8279   -3.3889   1.9041   N
  57 O   -7.4998   8.6166   0.5302   O
  58 O   0.7260   -4.4573   2.9521   O
  59 O   -7.3996   7.6077   1.6356   O
  60 O   -4.8549   1.7233   6.0987   O
  61 O   -4.0134   -0.5989   6.9045   O
  62 N   -0.3233   3.0704   -1.8664   N
  63 O   -0.6690   4.3651   -2.5405   O
  64 O   0.6889   2.1508   -2.4827   O
  65 N   -7.4394   3.5599   3.2270   N
  66 O   -8.0853   2.5298   4.1054   O
  67 O   -8.0198   4.8746   3.6566   O
  68 O   -7.7235   2.9812   1.8725   O
  69 O   -7.0067   6.2775   1.0643   O
  70 O   -6.1668   6.4879   -0.1605   O
  71 O   -5.7739   5.1578   -0.7318   O
  72 O   -6.8400   4.1478   -0.4263   O
  73 O   -6.2535   3.0321   0.3869   O
  74 O   -7.3196   2.0221   0.6924   O
  75 O   -6.6991   0.6621   0.8163   O
  76 O   -6.2987   0.4232   2.2420   O
  77 O   -7.4381   -0.2131   2.9815   O
  78 O   -6.8987   -1.0886   4.0735   O
  79 O   -6.0867   -0.2594   5.0239   O
  80 C   -6.9744   0.2663   6.1127   C
  81 C   -7.1714   -0.5288   7.3693   C
  82 C   -8.0590   -0.0030   8.4582   C
  83 C   -8.7497   1.3179   8.2905   C
  84 C   -8.5527   2.1130   7.0339   C
  85 C   -7.6651   1.5873   5.9450   C
  86 C   -9.6374   1.8437   9.3793   C
  87 O   -9.1466   1.3483   10.7074   O
  88 O   -7.6600   1.1560   10.6509   O
  89 N   -7.1599   1.5231   9.2853   N
  90 O   -5.9446   0.7057   8.9614   O

@<TRIPOS>BOND
   1   1  11   1
   2   1  20   1
   3   1  26   1
   4   2  25   1
   5   2  31   1
   6   2  10   1
   7   3   6   1
   8   3  31   1
   9   3  36   1
  10   4   5   1
  11   4  20   1
  12   4  22   1
  13   5   7   1
  14   5  34   1
  15   6   8   1
  16   6  33   1
  17   7  26   1
  18   7  30   1
  19   8  25   1
  20   8  27   1
  21   9  33   1
  22   9  36   1
  23   9  28   1
  24  10  11   1
  25  11  20   1
  26  11  52   1
  27  11  58   1
  28  11  61   1
  29  12  13   1
  30  12  40   1
  31  12  42   1
  32  12  44   1
  33  12  54   1
  34  12  67   1
  35  13  14   1
  36  13  22   1
  37  13  42   1
  38  13  44   1
  39  13  48   1
  40  14  16   1
  41  14  22   1
  42  14  34   1
  43  14  48   1
  44  14  63   1
  45  15  48   1
  46  15  49   1
  47  16  43   1
  48  16  28   1
  49  16  48   1
  50  16  63   1
  51  17  50   1
  52  17  51   1
  53  18  34   1
  54  18  30   1
  55  18  27   1
  56  18  46   1
  57  18  51   1
  58  18  64   1
  59  19  40   1
  60  19  45   1
  61  19  52   1
  62  19  66   1
  63  20  22   1
  64  20  39   1
  65  20  41   1
  66  20  52   1
  67  20  60   1
  68  21  52   1
  69  21  53   1
  70  21  29   1
  71  21  60   1
  72  21  61   1
  73  22  34   1
  74  22  41   1
  75  22  42   1
  76  23  54   1
  77  23  55   1
  78  24  56   1
  79  25  35   1
  80  26  37   1
  81  27  50   1
  82  28  43   1
  83  30  34   1
  84  30  51   1
  85  30  50   1
  86  31  45   1
  87  32  62   1
  88  33  46   1
  89  34  63   1
  90  35  50   1
  91  36  47   1
  92  37  58   1
  93  38  65   1
  94  39  41   1
  95  39  53   1
  96  39  54   1
  97  40  53   1
  98  40  54   1
  99  40  67   1
 100  41  42   1
 101  41  55   1
 102  42  55   1
 103  43  44   1
 104  43  68   1
 105  44  67   1
 106  45  52   1
 107  45  60   1
 108  46  63   1
 109  47  68   1
 110  49  57   1
 111  50  56   1
 112  52  61   1
 113  53  54   1
 114  53  90   1
 115  56  58   1
 116  57  59   1
 117  59  69   1
 118  62  63   1
 119  62  64   1
 120  65  66   1
 121  65  67   1
 122  65  68   1
 123  69  70   1
 124  70  71   1
 125  71  72   1
 126  72  73   1
 127  73  74   1
 128  74  75   1
 129  75  76   1
 130  76  77   1
 131  77  78   1
 132  78  79   1
 133  79  80   1
 134  80  81   1
 135  80  85   1
 136  81  82   1
 137  82  83   1
 138  83  84   1
 139  83  86   1
 140  84  85   1
 141  86  87   1
 142  87  88   1
 143  88  89   1
 144  89  90   1
