@<TRIPOS>MOLECULE
*****
 255 309 0 0 0
SMALL
GASTEIGER

@<TRIPOS>ATOM
   1 C   -0.1812   0.1260   4.0475   C
   2 S   -2.8757   -1.6107   2.4093   S
   3 S   -3.5494   0.3976   1.6263   S
   4 C   -0.9198   2.0475   3.4491   C
   5 S   -0.1026   1.9994   2.3178   S
   6 S   -2.7684   0.3963   0.5058   S
   7 S   0.6960   0.8205   2.1575   S
   8 S   -1.9722   -0.7362   0.3090   S
   9 S   -3.8355   2.1889   0.4122   S
  10 O   -2.8722   -2.6538   3.3430   O
  11 C   -1.3931   -2.6353   5.2250   C
  12 C   -6.2084   5.6237   5.6744   C
  13 C   -3.4726   8.5858   4.4206   C
  14 C   -1.9632   5.9254   1.0645   C
  15 N   -5.3453   9.2062   1.5354   N
  16 C   -3.5363   5.4714   0.6015   C
  17 N   1.4207   -2.5441   -0.1276   N
  18 C   0.3041   1.6102   -1.8251   C
  19 C   -5.7191   0.7884   3.9383   C
  20 C   -0.8925   1.7768   5.1448   C
  21 N   -4.2655   0.4911   6.0661   N
  22 C   -0.7348   5.1178   3.0069   C
  23 N   -4.4987   4.5358   7.5321   N
  24 N   0.2308   -2.4410   2.0073   N
  25 S   -2.0837   -1.6820   1.2680   S
  26 S   0.6350   -0.1667   3.0770   S
  27 O   -1.1145   -0.9126   -0.7833   O
  28 O   -4.2968   3.4236   -0.0599   O
  29 N   -3.3551   0.4233   4.9745   N
  30 O   1.5597   0.6279   1.0727   O
  31 S   -3.6710   -0.5061   2.6258   S
  32 N   -0.8231   2.7892   -0.8986   N
  33 S   -2.9326   1.5120   -0.2669   S
  34 C   -0.3132   3.1663   1.5667   C
  35 O   -1.3138   -2.8330   1.0618   O
  36 S   -4.2608   1.5878   1.5800   S
  37 O   1.3459   -1.3718   3.0289   O
  38 N   -6.3304   3.7318   3.1481   N
  39 C   -3.3238   3.7910   7.3645   C
  40 C   -5.6060   3.9512   5.5329   C
  41 C   -1.0282   5.2180   6.3453   C
  42 C   -2.8780   7.2609   5.5019   C
  43 C   -5.2778   5.5963   0.7140   C
  44 C   -6.6271   6.1880   3.2564   C
  45 O   -4.5066   -0.3231   3.7340   O
  46 O   -2.3197   1.8763   -1.4718   O
  47 O   -5.1957   2.0724   2.5025   O
  48 O   -4.2258   10.1301   1.9139   O
  49 O   -6.5313   9.7337   0.7836   O
  50 O   1.4502   -3.6206   0.7832   O
  51 O   2.3488   -2.7547   -1.2871   O
  52 O   -3.8735   -0.5348   5.3470   O
  53 O   -5.4448   0.0231   7.3394   O
  54 O   -5.4509   3.4498   7.1271   O
  55 O   -4.5436   5.0918   8.9245   O
  56 N   0.8279   -3.3889   1.9041   N
  57 O   -7.4998   8.6166   0.5302   O
  58 O   0.7260   -4.4573   2.9521   O
  59 O   -7.3996   7.6077   1.6356   O
  60 O   -4.8549   1.7233   6.0987   O
  61 O   -4.0134   -0.5989   6.9045   O
  62 N   -0.3233   3.0704   -1.8664   N
  63 O   -0.6690   4.3651   -2.5405   O
  64 O   0.6889   2.1508   -2.4827   O
  65 N   -7.4394   3.5599   3.2270   N
  66 O   -8.0853   2.5298   4.1054   O
  67 O   -8.0198   4.8746   3.6566   O
  68 O   -7.7235   2.9812   1.8725   O
  69 O   -6.9954   8.2959   2.9056   O
  70 C   -8.0570   8.0907   3.9453   C
  71 O   -7.8914   8.6831   5.3134   O
  72 O   -9.2841   7.2930   3.6169   O
  73 O   -9.7901   6.6202   4.8583   O
  74 O   -8.6384   6.3293   5.7742   O
  75 N   -7.6623   5.4271   5.0789   N
  76 O   -7.5175   4.1529   5.8569   O
  77 O   -7.7436   4.4282   7.3140   O
  78 N   -6.9380   3.4659   8.1356   N
  79 C   -6.5549   4.1146   9.4327   C
  80 C   -5.7494   3.1523   10.2542   C
  81 O   -5.2414   3.5616   11.6049   O
  82 C   -5.4518   1.7806   9.7251   C
  83 O   -5.9597   1.3713   8.3744   O
  84 O   -4.6462   0.8183   10.5466   O
  85 O   -3.2920   1.4039   10.8176   O
  86 C   -3.1949   2.7566   10.1767   C
  87 O   -4.3605   3.3092   9.4111   O
  88 C   -1.9323   3.5566   10.3013   C
  89 O   -0.7667   3.0040   11.0669   O
  90 C   -1.8351   4.9093   9.6604   C
  91 O   -3.0007   5.4619   8.8948   O
  92 O   -0.5725   5.7094   9.7850   O
  93 C   -0.4080   6.5762   8.5719   C
  94 O   -1.4352   6.5400   7.4795   O
  95 C   0.7837   7.4791   8.4513   C
  96 O   1.8109   7.5153   9.5438   O
  97 O   0.9482   8.3459   7.2382   O
  98 O   -0.4026   8.7095   6.6967   O
  99 O   -1.3945   8.7610   7.8206   O
 100 O   -2.4873   7.7647   7.5690   O
 101 C   -3.7641   8.2573   8.1830   C
 102 O   -5.0154   7.4376   8.0709   O
 103 O   -3.7897   9.5696   8.9091   O
 104 C   -4.2047   9.3451   10.3330   C
 105 O   -4.3087   10.5071   11.2760   O
 106 C   -4.5157   7.9588   10.8139   C
 107 O   -4.4118   6.7969   9.8710   O
 108 O   -4.9307   7.7343   12.2378   O
 109 C   -5.8438   6.5465   12.3111   C
 110 O   -6.1988   5.7952   11.0624   O
 111 O   -6.4020   6.1101   13.6333   O
 112 O   -7.9001   6.1700   13.5878   O
 113 O   -8.4389   4.8525   13.1145   O
 114 O   -8.5597   4.8698   11.6194   O
 115 O   -7.7074   3.7818   11.0364   O
 116 O   -8.5706   2.8328   10.2591   O
 117 C   -9.2596   3.5753   9.1528   C
 118 O   -10.1860   2.8475   8.2244   O
 119 C   -9.0221   5.0457   8.9749   C
 120 O   -8.0956   5.7735   9.9033   O
 121 O   -9.7110   5.7882   7.8686   O
 122 C   -9.9343   7.2118   8.2852   C
 123 O   -10.6105   8.1698   7.3498   O
 124 O   -9.4815   7.6773   9.6373   O
 125 C   -8.0744   8.1886   9.5447   C
 126 O   -7.3559   8.1731   8.2281   O
 127 C   -7.3857   8.7153   10.7688   C
 128 O   -8.1042   8.7308   12.0854   O
 129 O   -5.9786   9.2266   10.6761   O
 130 O   -5.7403   9.7896   9.3064   O
 131 O   -4.7271   10.8926   9.3885   O
 132 C   -3.9565   10.9603   8.1033   C
 133 O   -4.2659   10.0016   6.9919   O
 134 O   -2.8764   11.9866   7.9296   O
 135 C   -1.8203   11.7829   8.9752   C
 136 O   -0.6235   12.6861   9.0183   O
 137 O   -1.9610   10.6759   9.9776   O
 138 O   -2.0220   9.3587   9.2626   O
 139 O   -2.8505   8.3951   10.0595   O
 140 O   -2.9115   7.0779   9.3446   O
 141 O   -3.0522   5.9710   10.3470   O
 142 O   -3.7908   6.4771   11.5504   O
 143 O   -3.9315   5.3702   12.5528   O
 144 C   -2.7662   4.4337   12.4304   C
 145 O   -1.6975   4.6956   11.4110   O
 146 C   -2.6695   3.2354   13.3275   C
 147 C   -1.9634   3.3411   14.6467   C
 148 C   -1.8667   2.1428   15.5437   C
 149 C   -2.4762   0.8388   15.1216   C
 150 C   -3.1824   0.7331   13.8025   C
 151 C   -3.2790   1.9314   12.9054   C
 152 C   -2.3796   -0.3595   16.0187   C
 153 O   -3.5634   -0.3917   16.9392   O
 154 O   -4.4493   0.7851   16.6558   O
 155 C   -4.3331   1.1613   15.2084   C
 156 C   -5.6273   1.7589   14.7417   C
 157 O   -5.7714   2.2203   13.3217   O
 158 O   -6.7774   1.8951   15.6949   O
 159 N   -6.7012   3.2255   16.3836   N
 160 O   -7.4587   4.2454   15.5861   O
 161 O   -6.5288   5.3467   15.1707   O
 162 O   -5.4226   4.7775   14.3326   O
 163 O   -5.8269   4.8011   12.8883   O
 164 O   -6.5228   3.5180   12.5429   O
 165 O   -7.2261   2.9880   13.7572   O
 166 C   -8.4406   2.2158   13.3345   C
 167 O   -9.3219   1.5794   14.3680   O
 168 O   -8.7737   2.0801   11.8782   O
 169 O   -7.5095   2.1082   11.0714   O
 170 O   -6.3845   1.5400   11.8848   O
 171 O   -6.9249   0.5169   12.8394   O
 172 O   -8.1386   -0.1318   12.2428   O
 173 C   -8.0157   -0.1430   10.7479   C
 174 O   -6.8017   0.4439   10.0908   O
 175 C   -9.1068   -0.7410   9.9101   C
 176 O   -10.3208   -1.3279   10.5672   O
 177 C   -8.9838   -0.7521   8.4152   C
 178 O   -10.0749   -1.3502   7.5773   O
 179 C   -7.7698   -0.1653   7.7581   C
 180 C   -7.6578   1.2861   8.1201   C
 181 N   -6.9901   2.0302   7.0018   N
 182 O   -8.0292   2.5229   6.0387   O
 183 C   -8.7868   1.3551   5.4800   C
 184 O   -8.4432   -0.0390   5.9142   O
 185 C   -9.8881   1.5813   4.4870   C
 186 O   -10.2317   2.9753   4.0527   O
 187 C   -10.6458   0.4135   3.9283   C
 188 O   -10.3022   -0.9806   4.3626   O
 189 O   -11.7471   0.6397   2.9353   O
 190 O   -11.4523   1.8730   2.1341   O
 191 O   -10.1545   2.4690   2.5929   O
 192 N   -9.2548   1.3799   3.0972   N
 193 C   -7.9939   1.3568   2.2851   C
 194 N   -7.0942   0.2677   2.7893   N
 195 O   -7.9253   -0.8453   3.3555   O
 196 C   -7.5820   -1.0393   4.8028   C
 197 O   -6.5418   -0.1733   5.4494   O
 198 C   -8.2788   -2.0992   5.6033   C
 199 O   -7.9355   -2.2932   7.0506   O
 200 C   -9.3190   -2.9652   4.9567   C
 201 O   -9.6623   -2.7712   3.5094   O
 202 C   -10.0159   -4.0251   5.7573   C
 203 O   -9.6726   -4.2191   7.2045   O
 204 O   -11.0561   -4.8910   5.1106   O
 205 O   -12.3656   -4.7143   5.8205   O
 206 O   -12.1983   -3.7305   6.9404   O
 207 O   -11.1271   -2.7433   6.5829   O
 208 O   -11.7063   -1.3597   6.5702   O
 209 O   -11.5455   -0.7630   5.2034   O
 210 O   -11.4122   0.7265   5.3207   O
 211 O   -10.7666   1.0691   6.6306   O
 212 O   -9.9853   2.3413   6.4853   O
 213 C   -10.8690   3.5101   6.8061   C
 214 O   -10.3227   4.9052   6.7348   O
 215 C   -12.2991   3.2838   7.1980   C
 216 O   -12.8454   1.8886   7.2693   O
 217 O   -13.1829   4.4526   7.5188   O
 218 O   -12.3531   5.5658   8.0865   O
 219 O   -11.1738   4.9900   8.8130   O
 220 O   -10.7812   5.9062   9.9339   O
 221 C   -10.8830   5.1725   11.2383   C
 222 O   -10.5420   5.8719   12.5207   O
 223 C   -11.3258   3.7395   11.2602   C
 224 O   -11.6667   3.0402   9.9777   O
 225 C   -11.4276   3.0059   12.5646   C
 226 O   -11.0866   3.7052   13.8470   O
 227 C   -11.8704   1.5729   12.5865   C
 228 O   -12.2114   0.8736   11.3040   O
 229 O   -11.9722   0.8392   13.8909   O
 230 C   -10.6612   0.1771   14.1957   C
 231 O   -9.5109   0.3173   13.2434   O
 232 O   -10.5007   -0.6251   15.4530   O
 233 O   -9.1073   -1.1766   15.5196   O
 234 O   -8.3391   -0.7421   14.3068   O
 235 O   -7.6564   0.5635   14.5887   O
 236 O   -6.1736   0.3953   14.4370   O
 237 O   -5.5790   -0.0085   15.7536   O
 238 O   -4.3625   -0.8530   15.5149   O
 239 O   -4.1462   -1.0122   14.0391   O
 240 O   -4.6624   0.2013   13.3243   O
 241 O   -3.8632   0.4231   12.0745   O
 242 O   -3.3718   -0.8954   11.5547   O
 243 C   -4.3835   -1.4674   10.6063   C
 244 O   -5.6504   -0.7173   10.3192   O
 245 O   -4.1283   -2.7893   9.9450   O
 246 O   -2.8728   -2.7057   9.1285   O
 247 O   -3.0278   -1.6440   8.0804   O
 248 O   -3.2830   -0.3221   8.7417   O
 249 C   -2.7328   0.7798   7.8855   C
 250 O   -2.0547   0.4539   6.5879   O
 251 O   -2.8606   2.2077   8.3271   O
 252 O   -1.6629   2.5867   9.1467   O
 253 O   -0.9481   3.7296   8.4887   O
 254 O   -1.9362   4.5702   7.7357   O
 255 O   -3.3096   3.9876   7.8916   O

@<TRIPOS>BOND
   1   1  11   1
   2   1  20   1
   3   1  26   1
   4   2  25   1
   5   2  31   1
   6   2  10   1
   7   3   6   1
   8   3  31   1
   9   3  36   1
  10   4   5   1
  11   4  20   1
  12   4  22   1
  13   5   7   1
  14   5  34   1
  15   6   8   1
  16   6  33   1
  17   7  26   1
  18   7  30   1
  19   8  25   1
  20   8  27   1
  21   9  33   1
  22   9  36   1
  23   9  28   1
  24  10  11   1
  25  11  20   1
  26  11  52   1
  27  11  58   1
  28  11  61   1
  29  12  13   1
  30  12  40   1
  31  12  42   1
  32  12  44   1
  33  12  54   1
  34  12  67   1
  35  13  14   1
  36  13  22   1
  37  13  42   1
  38  13  44   1
  39  13  48   1
  40  14  16   1
  41  14  22   1
  42  14  34   1
  43  14  48   1
  44  14  63   1
  45  15  48   1
  46  15  49   1
  47  16  43   1
  48  16  28   1
  49  16  48   1
  50  16  63   1
  51  17  50   1
  52  17  51   1
  53  18  34   1
  54  18  30   1
  55  18  27   1
  56  18  46   1
  57  18  51   1
  58  18  64   1
  59  19  40   1
  60  19  45   1
  61  19  52   1
  62  19  66   1
  63  20  22   1
  64  20  39   1
  65  20  41   1
  66  20  52   1
  67  20  60   1
  68  21  52   1
  69  21  53   1
  70  21  29   1
  71  21  60   1
  72  21  61   1
  73  22  34   1
  74  22  41   1
  75  22  42   1
  76  23  54   1
  77  23  55   1
  78  24  56   1
  79  25  35   1
  80  26  37   1
  81  27  50   1
  82  28  43   1
  83  30  34   1
  84  30  51   1
  85  30  50   1
  86  31  45   1
  87  32  62   1
  88  33  46   1
  89  34  63   1
  90  35  50   1
  91  36  47   1
  92  37  58   1
  93  38  65   1
  94  39  41   1
  95  39  53   1
  96  39  54   1
  97  40  53   1
  98  40  54   1
  99  40  67   1
 100  41  42   1
 101  41  55   1
 102  42  55   1
 103  43  44   1
 104  43  68   1
 105  44  67   1
 106  45  52   1
 107  45  60   1
 108  46  63   1
 109  47  68   1
 110  49  57   1
 111  50  56   1
 112  52  61   1
 113  53  54   1
 114  55 255   1
 115  56  58   1
 116  57  59   1
 117  59  69   1
 118  62  63   1
 119  62  64   1
 120  65  66   1
 121  65  67   1
 122  65  68   1
 123  69  70   1
 124  70  71   1
 125  70  72   1
 126  72  73   1
 127  73  74   1
 128  74  75   1
 129  75  76   1
 130  76  77   1
 131  77  78   1
 132  78  79   1
 133  79  80   1
 134  80  81   1
 135  80  82   1
 136  82  83   1
 137  82  84   1
 138  84  85   1
 139  85  86   1
 140  86  87   1
 141  86  88   1
 142  88  89   1
 143  88  90   1
 144  90  91   1
 145  90  92   1
 146  92  93   1
 147  93  94   1
 148  93  95   1
 149  95  96   1
 150  95  97   1
 151  97  98   1
 152  98  99   1
 153  99 100   1
 154 100 101   1
 155 101 102   1
 156 101 103   1
 157 103 104   1
 158 104 105   1
 159 104 106   1
 160 106 107   1
 161 106 108   1
 162 108 109   1
 163 109 110   1
 164 109 111   1
 165 111 112   1
 166 112 113   1
 167 113 114   1
 168 114 115   1
 169 115 116   1
 170 116 117   1
 171 117 118   1
 172 117 119   1
 173 119 120   1
 174 119 121   1
 175 121 122   1
 176 122 123   1
 177 122 124   1
 178 124 125   1
 179 125 126   1
 180 125 127   1
 181 127 128   1
 182 127 129   1
 183 129 130   1
 184 130 131   1
 185 131 132   1
 186 132 133   1
 187 132 134   1
 188 134 135   1
 189 135 136   1
 190 135 137   1
 191 137 138   1
 192 138 139   1
 193 139 140   1
 194 140 141   1
 195 141 142   1
 196 142 143   1
 197 143 144   1
 198 144 145   1
 199 144 146   1
 200 146 147   1
 201 146 151   1
 202 147 148   1
 203 148 149   1
 204 149 150   1
 205 149 152   1
 206 150 151   1
 207 152 153   1
 208 153 154   1
 209 154 155   1
 210 155 156   1
 211 156 157   1
 212 156 158   1
 213 158 159   1
 214 159 160   1
 215 160 161   1
 216 161 162   1
 217 162 163   1
 218 163 164   1
 219 164 165   1
 220 165 166   1
 221 166 167   1
 222 166 168   1
 223 168 169   1
 224 169 170   1
 225 170 171   1
 226 171 172   1
 227 172 173   1
 228 173 174   1
 229 173 175   1
 230 175 176   1
 231 175 177   1
 232 177 178   1
 233 177 179   1
 234 179 180   1
 235 180 181   1
 236 181 182   1
 237 182 183   1
 238 183 184   1
 239 183 185   1
 240 185 186   1
 241 185 187   1
 242 187 188   1
 243 187 189   1
 244 189 190   1
 245 190 191   1
 246 191 192   1
 247 192 193   1
 248 193 194   1
 249 194 195   1
 250 195 196   1
 251 196 197   1
 252 196 198   1
 253 198 199   1
 254 198 200   1
 255 200 201   1
 256 200 202   1
 257 202 203   1
 258 202 204   1
 259 204 205   1
 260 205 206   1
 261 206 207   1
 262 207 208   1
 263 208 209   1
 264 209 210   1
 265 210 211   1
 266 211 212   1
 267 212 213   1
 268 213 214   1
 269 213 215   1
 270 215 216   1
 271 215 217   1
 272 217 218   1
 273 218 219   1
 274 219 220   1
 275 220 221   1
 276 221 222   1
 277 221 223   1
 278 223 224   1
 279 223 225   1
 280 225 226   1
 281 225 227   1
 282 227 228   1
 283 227 229   1
 284 229 230   1
 285 230 231   1
 286 230 232   1
 287 232 233   1
 288 233 234   1
 289 234 235   1
 290 235 236   1
 291 236 237   1
 292 237 238   1
 293 238 239   1
 294 239 240   1
 295 240 241   1
 296 241 242   1
 297 242 243   1
 298 243 244   1
 299 243 245   1
 300 245 246   1
 301 246 247   1
 302 247 248   1
 303 248 249   1
 304 249 250   1
 305 249 251   1
 306 251 252   1
 307 252 253   1
 308 253 254   1
 309 254 255   1
