@<TRIPOS>MOLECULE
*****
 103 0 0 0 0
SMALL
GASTEIGER

@<TRIPOS>ATOM
   1 C   1.3031   -2.6938   14.0283   C
   2 C   0.1474   -5.9857   13.1407   C
   3 C   2.2929   -3.2561   14.7863   C
   4 C   0.9196   -6.5036   14.0598   C
   5 C   1.6969   -3.3218   16.1167   C
   6 C   0.3475   -6.5766   15.3781   C
   7 C   1.1475   2.7273   5.7497   C
   8 C   3.4091   1.9642   6.6345   C
   9 C   1.3394   1.0683   3.8285   C
  10 C   3.3221   -2.6270   13.5405   C
  11 C   3.8337   -4.8078   11.6222   C
  12 C   -2.5084   -2.4199   10.8932   C
  13 C   -0.8625   -2.6744   13.3051   C
  14 C   -1.2667   -4.1523   17.1447   C
  15 C   -0.9062   -6.0667   15.5060   C
  16 C   0.4953   -2.7775   15.9261   C
  17 C   3.1787   -6.0369   16.8033   C
  18 C   0.5399   -5.3384   18.3095   C
  19 C   0.8596   -7.0140   16.4200   C
  20 C   2.1502   -3.7360   17.1609   C
  21 C   3.8230   3.7496   6.1633   C
  22 C   5.0789   1.0316   6.1641   C
  23 C   5.0738   1.2833   2.2369   C
  24 C   3.0873   2.3340   0.4306   C
  25 C   7.6941   4.4526   3.8356   C
  26 C   6.4226   3.1567   1.4406   C
  27 C   6.2463   4.3017   -0.1854   C
  28 C   3.8007   4.7632   1.4391   C
  29 C   5.5891   8.0429   2.4885   C
  30 C   8.4118   8.6631   2.9090   C
  31 C   4.6216   8.9811   -0.7137   C
  32 C   7.5190   9.5506   -0.2618   C
  33 C   8.9644   9.3353   -1.9169   C
  34 C   8.2302   6.4880   -1.6038   C
  35 C   6.1162   7.3314   -5.8078   C
  36 C   5.1407   8.1680   -3.6104   C
  37 C   6.1975   9.7209   -6.6815   C
  38 C   9.0831   10.1994   -6.8796   C
  39 C   9.2110   7.4393   -6.5604   C
  40 C   5.5749   0.1667   9.6812   C
  41 C   3.8127   3.2406   7.2676   C
  42 C   5.8809   0.0987   5.3187   C
  43 C   3.1355   -2.8813   7.2865   C
  44 C   2.7166   -1.6102   3.5685   C
  45 C   -1.2795   0.8015   4.8893   C
  46 C   0.6159   -2.5873   7.0976   C
  47 C   1.5491   3.4427   6.7428   C
  48 C   -0.9492   2.9367   10.1099   C
  49 C   -2.4277   1.3273   6.4589   C
  50 C   -3.1072   -0.6936   10.3827   C
  51 C   -0.8425   -2.4833   7.3217   C
  52 C   0.6167   1.4053   11.8415   C
  53 C   1.5923   -2.6894   7.4666   C
  54 C   5.3693   -1.5106   8.9886   C
  55 C   3.2297   0.6619   12.3696   C
  56 C   2.2248   -4.3204   8.8422   C
  57 C   -2.7745   -2.7118   9.1185   C
  58 C   1.7826   -3.4032   8.2932   C
  59 C   -2.6396   -4.4512   12.6784   C
  60 C   -0.0392   -6.9901   10.1777   C
  61 C   3.3026   -5.3578   11.3399   C
  62 C   -0.7600   -1.9130   14.6903   C
  63 C   2.3262   0.9334   12.5185   C
  64 C   3.7124   -2.4770   14.4685   C
  65 C   -0.0773   1.8363   11.3285   C
  66 C   2.5634   4.1039   8.2713   C
  67 C   4.4485   1.2204   11.1633   C
  68 C   -1.5491   -1.4317   13.8814   C
  69 C   -2.6452   -5.8524   13.7127   C
  70 C   4.1469   -5.8926   13.8941   C
  71 C   5.9562   -1.8788   11.1145   C
  72 C   -1.2740   0.8397   12.1682   C
  73 C   4.4959   -0.3058   3.0799   C
  74 C   1.0769   1.9005   1.6932   C
  75 C   1.7413   4.9509   5.3446   C
  76 C   2.6848   5.9413   1.5253   C
  77 C   4.4475   6.2051   5.1742   C
  78 C   6.3658   0.8565   2.7718   C
  79 C   7.4297   0.9379   6.3883   C
  80 C   8.9808   4.0750   3.9590   C
  81 C   5.2142   5.4416   6.6370   C
  82 C   4.8282   7.4035   3.8359   C
  83 C   9.0314   6.8065   3.8691   C
  84 C   8.8710   4.1128   0.2676   C
  85 C   9.9897   7.7814   -0.3829   C
  86 C   7.4133   5.2575   -2.0381   C
  87 C   4.1764   8.5448   2.0266   C
  88 C   5.3626   4.3891   -2.7039   C
  89 C   3.6069   8.8759   -2.2876   C
  90 C   1.5832   5.3675   0.1467   C
  91 C   4.7248   6.5070   -3.5945   C
  92 C   3.4837   10.1481   -2.3988   C
  93 C   8.1998   11.3592   -1.5991   C
  94 C   6.7558   12.4960   -5.3648   C
  95 C   10.0066   10.9378   -3.5697   C
  96 C   6.3514   5.9133   -5.1160   C
  97 C   9.9558   7.4129   -6.7664   C
  98 C   9.2913   4.8707   -2.2653   C
  99 C   11.5683   9.2146   -2.9555   C
 100 C   6.3868   4.2903   0.3127   C
 101 C   6.8504   10.7631   0.0457   C
 102 C   3.0609   9.9381   -5.5411   C
 103 C   5.3842   8.7889   -6.7105   C

@<TRIPOS>BOND
