@<TRIPOS>MOLECULE
*****
 37 105 0 0 0
SMALL
GASTEIGER

@<TRIPOS>ATOM
   1 C   2.5350   6.5430   1.3018   C
   2 C   2.6677   8.4446   5.5253   C
   3 C   1.2878   6.4097   1.7382   C
   4 C   1.3919   3.1039   -0.6584   C
   5 C   3.6988   1.4254   4.9178   C
   6 C   4.2339   7.7812   6.6875   C
   7 C   3.0763   1.3308   -1.3267   C
   8 C   7.2816   3.2684   3.6789   C
   9 C   6.2096   2.1426   4.0429   C
  10 C   6.0952   9.2804   4.2602   C
  11 C   8.2671   3.9765   0.9712   C
  12 C   7.2404   -0.4035   0.5965   C
  13 C   5.7913   7.8725   0.0575   C
  14 C   9.3565   7.4912   2.7892   C
  15 C   -0.4939   4.8355   1.5633   C
  16 C   0.5132   0.1384   4.2597   C
  17 C   5.5248   2.1994   4.7951   C
  18 C   2.7887   -1.8469   1.5715   C
  19 C   9.4968   5.1070   5.3505   C
  20 C   5.9388   4.9702   -1.4716   C
  21 C   0.2312   5.8502   5.4831   C
  22 C   2.7096   4.5856   6.4302   C
  23 C   0.4797   1.8524   3.4422   C
  24 C   3.6457   7.8704   2.9939   C
  25 C   2.5612   -0.8855   1.4082   C
  26 C   0.6625   1.2706   0.7857   C
  27 C   3.0478   4.1961   6.5991   C
  28 C   5.8080   4.6348   7.5091   C
  29 C   5.4004   0.1226   3.2075   C
  30 C   5.8531   -0.2822   0.3315   C
  31 C   6.5121   6.1757   7.1747   C
  32 C   7.3499   8.0553   5.0756   C
  33 C   4.0575   3.8275   -0.4306   C
  34 C   3.9759   1.9261   -0.9627   C
  35 C   6.6594   1.4315   -2.0541   C
  36 C   7.7484   4.1419   3.1686   C
  37 C   8.0327   4.9600   0.3594   C

@<TRIPOS>BOND
   1   1   3   1
   2   1   4   1
   3   1  13   1
   4   1  20   1
   5   1  24   1
   6   1  33   1
   7   2   3   1
   8   2   6   1
   9   2  10   1
  10   2  21   1
  11   2  24   1
  12   3   4   1
  13   3  15   1
  14   3  21   1
  15   3  24   1
  16   4   7   1
  17   4  15   1
  18   4  26   1
  19   4  33   1
  20   5  16   1
  21   5  17   1
  22   5  18   1
  23   5  27   1
  24   5  28   1
  25   5  29   1
  26   6  10   1
  27   6  21   1
  28   6  22   1
  29   6  27   1
  30   6  28   1
  31   6  31   1
  32   6  32   1
  33   7  18   1
  34   7  25   1
  35   7  26   1
  36   7  30   1
  37   7  33   1
  38   7  34   1
  39   7  35   1
  40   8   9   1
  41   8  11   1
  42   8  12   1
  43   8  19   1
  44   8  36   1
  45   9  12   1
  46   9  17   1
  47   9  19   1
  48   9  29   1
  49  10  13   1
  50  10  14   1
  51  10  24   1
  52  10  32   1
  53  11  12   1
  54  11  14   1
  55  11  19   1
  56  11  35   1
  57  11  36   1
  58  11  37   1
  59  12  18   1
  60  12  29   1
  61  12  30   1
  62  12  35   1
  63  13  14   1
  64  13  20   1
  65  13  24   1
  66  13  37   1
  67  14  19   1
  68  14  32   1
  69  14  37   1
  70  15  21   1
  71  15  23   1
  72  15  26   1
  73  16  18   1
  74  16  21   1
  75  16  22   1
  76  16  23   1
  77  16  25   1
  78  16  26   1
  79  16  27   1
  80  17  19   1
  81  17  28   1
  82  17  29   1
  83  18  25   1
  84  18  29   1
  85  18  30   1
  86  19  28   1
  87  19  31   1
  88  19  32   1
  89  19  36   1
  90  20  33   1
  91  20  34   1
  92  20  35   1
  93  20  37   1
  94  21  22   1
  95  21  23   1
  96  22  27   1
  97  23  26   1
  98  25  26   1
  99  27  28   1
 100  28  31   1
 101  30  35   1
 102  31  32   1
 103  33  34   1
 104  34  35   1
 105  35  37   1
