@<TRIPOS>MOLECULE
*****
 81 128 0 0 0
SMALL
GASTEIGER

@<TRIPOS>ATOM
   1 C   -0.1812   0.1260   4.0475   C
   2 S   -2.8757   -1.6107   2.4093   S
   3 S   -3.5494   0.3976   1.6263   S
   4 O   -2.8722   -2.6538   3.3430   O
   5 S   -0.1026   1.9994   2.3178   S
   6 S   -2.7684   0.3963   0.5058   S
   7 S   0.6960   0.8205   2.1575   S
   8 S   -1.9722   -0.7362   0.3090   S
   9 S   -3.8355   2.1889   0.4122   S
  10 O   -0.8615   2.0150   3.4941   O
  11 C   -1.3931   -2.6353   5.2250   C
  12 C   -6.2084   5.6237   5.6744   C
  13 C   -3.4726   8.5858   4.4206   C
  14 C   -1.9632   5.9254   1.0645   C
  15 N   -5.3453   9.2062   1.5354   N
  16 C   -3.5363   5.4714   0.6015   C
  17 N   1.4207   -2.5441   -0.1276   N
  18 C   0.3041   1.6102   -1.8251   C
  19 C   -5.7191   0.7884   3.9383   C
  20 C   -0.8925   1.7768   5.1448   C
  21 N   -4.5285   0.4756   6.2414   N
  22 C   -0.7348   5.1178   3.0069   C
  23 N   -4.4987   4.5358   7.5321   N
  24 N   0.2308   -2.4410   2.0073   N
  25 S   -2.0837   -1.6820   1.2680   S
  26 S   0.6350   -0.1667   3.0770   S
  27 O   -1.1145   -0.9126   -0.7833   O
  28 O   -4.2968   3.4236   -0.0599   O
  29 O   1.5597   0.6279   1.0727   O
  30 O   -1.3138   -2.8330   1.0618   O
  31 S   -3.6710   -0.5061   2.6258   S
  32 N   -0.8231   2.7892   -0.8986   N
  33 S   -2.9326   1.5120   -0.2669   S
  34 C   -0.3132   3.1663   1.5667   C
  35 O   1.3459   -1.3718   3.0289   O
  36 S   -4.2608   1.5878   1.5800   S
  37 O   -4.5066   -0.3231   3.7340   O
  38 N   -6.3304   3.7318   3.1481   N
  39 C   -3.3238   3.7910   7.3645   C
  40 C   -5.6060   3.9512   5.5329   C
  41 C   -1.0282   5.2180   6.3453   C
  42 C   -2.8780   7.2609   5.5019   C
  43 C   -5.2778   5.5963   0.7140   C
  44 C   -6.6271   6.1880   3.2564   C
  45 O   -2.3197   1.8763   -1.4718   O
  46 O   -5.1957   2.0724   2.5025   O
  47 O   -4.2258   10.1301   1.9139   O
  48 O   -6.5313   9.7337   0.7836   O
  49 O   1.4502   -3.6206   0.7832   O
  50 O   2.3488   -2.7547   -1.2871   O
  51 O   -3.8735   -0.5348   5.3470   O
  52 O   -5.4448   0.0231   7.3394   O
  53 O   -5.4509   3.4498   7.1271   O
  54 O   -4.5436   5.0918   8.9245   O
  55 N   0.8279   -3.3889   1.9041   N
  56 O   -2.9378   9.3626   1.9586   O
  57 O   0.7260   -4.4573   2.9521   O
  58 N   -0.3233   3.0704   -1.8664   N
  59 O   -0.6690   4.3651   -2.5405   O
  60 O   0.6889   2.1508   -2.4827   O
  61 N   -7.4394   3.5599   3.2270   N
  62 O   -8.0853   2.5298   4.1054   O
  63 O   -8.0198   4.8746   3.6566   O
  64 O   -7.7235   2.9812   1.8725   O
  65 O   -2.7296   8.8152   3.3396   O
  66 O   -4.0608   8.5496   3.9780   O
  67 O   -4.1886   9.3696   5.2274   O
  68 O   -3.6609   8.5886   6.3943   O
  69 O   -3.1813   7.2478   5.9226   O
  70 O   -1.7216   7.1006   6.2352   O
  71 O   -1.5206   5.9217   7.1406   O
  72 O   -0.0610   5.7745   7.4532   O
  73 O   0.5824   4.8863   6.4299   O
  74 O   -0.4243   3.8964   5.9233   O
  75 O   0.0547   2.5044   6.2112   O
  76 O   0.2028   1.7502   4.9231   O
  77 O   -0.0459   0.2911   5.1665   O
  78 O   1.1779   -0.4932   4.7961   O
  79 O   0.9292   -1.9523   5.0396   O
  80 O   0.3587   -2.5759   3.8003   O
  81 O   1.2708   -3.6674   3.3244   O

@<TRIPOS>BOND
   1   1  11   1
   2   1  20   1
   3   1  26   1
   4   2  25   1
   5   2  31   1
   6   2   4   1
   7   3   6   1
   8   3  31   1
   9   3  36   1
  10   4  11   1
  11   5   7   1
  12   5  34   1
  13   5  10   1
  14   6   8   1
  15   6  33   1
  16   7  26   1
  17   7  29   1
  18   8  25   1
  19   8  27   1
  20   9  33   1
  21   9  36   1
  22   9  28   1
  23  10  20   1
  24  11  20   1
  25  11  51   1
  26  11  57   1
  27  12  13   1
  28  12  40   1
  29  12  42   1
  30  12  44   1
  31  12  53   1
  32  12  63   1
  33  13  14   1
  34  13  22   1
  35  13  42   1
  36  13  44   1
  37  14  16   1
  38  14  22   1
  39  14  34   1
  40  14  59   1
  41  15  47   1
  42  15  48   1
  43  16  43   1
  44  16  28   1
  45  16  59   1
  46  17  49   1
  47  17  50   1
  48  18  34   1
  49  18  29   1
  50  18  27   1
  51  18  45   1
  52  18  50   1
  53  18  60   1
  54  19  40   1
  55  19  37   1
  56  19  51   1
  57  19  62   1
  58  20  22   1
  59  20  39   1
  60  20  41   1
  61  20  51   1
  62  21  51   1
  63  21  52   1
  64  22  34   1
  65  22  41   1
  66  22  42   1
  67  23  53   1
  68  23  54   1
  69  24  55   1
  70  25  30   1
  71  26  35   1
  72  27  49   1
  73  28  43   1
  74  29  34   1
  75  29  50   1
  76  30  49   1
  77  31  37   1
  78  32  58   1
  79  33  45   1
  80  34  59   1
  81  35  49   1
  82  35  57   1
  83  36  46   1
  84  37  51   1
  85  38  61   1
  86  39  41   1
  87  39  52   1
  88  39  53   1
  89  40  52   1
  90  40  53   1
  91  40  63   1
  92  41  42   1
  93  41  54   1
  94  42  54   1
  95  43  44   1
  96  43  48   1
  97  43  64   1
  98  44  48   1
  99  44  63   1
 100  45  59   1
 101  46  64   1
 102  47  56   1
 103  49  55   1
 104  52  53   1
 105  55  57   1
 106  56  65   1
 107  57  81   1
 108  58  59   1
 109  58  60   1
 110  61  62   1
 111  61  63   1
 112  61  64   1
 113  65  66   1
 114  66  67   1
 115  67  68   1
 116  68  69   1
 117  69  70   1
 118  70  71   1
 119  71  72   1
 120  72  73   1
 121  73  74   1
 122  74  75   1
 123  75  76   1
 124  76  77   1
 125  77  78   1
 126  78  79   1
 127  79  80   1
 128  80  81   1
